-------------------------------------------------------
          Amber 18 PMEMD                              2018
          -------------------------------------------------------

  [-O]verwriting output

File Assignments:

 Here is the input file:

 &cntrl
   nstlim=500000, nscm=1000,
   ntx=5, irest=1, ntpr=1000,
   tempi=300.0, temp0=300.0, ntt=3, gamma_ln=2.0,
   ntp=1, pres0=1.01325, taup=5.0,
   ntb=2, igb=0, cut=10.0,
   dt=0.002, ig=-1,
   ntc=2, ntf=2,
   iwrap=0,
   ntwr=1000, ntwx=50000, ntave=1000,
   ioutfm=1, ntwv=-1,
   ifsc = 0, icfe=1,
   clambda=0.11505,
   timask1=':1',
   timask2=':2', crgmask = ':2',
/

Note: ig = -1. Setting random seed to   561068 based on wallclock time in
      microseconds.

--------------------------------------------------------------------------------
   1.  RESOURCE   USE:
--------------------------------------------------------------------------------

 getting box info from netcdf restart file
 NATOM  =      24 NTYPES =       6 NBONH =      16 MBONA  =       6
 NTHETH =      32 MTHETA =       4 NPHIH =      40 MPHIA  =       2
 NHPARM =       0 NPARM  =       0 NNB   =     102 NRES   =       2
 NBONA  =       6 NTHETA =       4 NPHIA =       2 NUMBND =       4
 NUMANG =       6 NPTRA  =       2 NATYP =       6 NPHB   =       1
 IFBOX  =       2 NMXRS  =      12 IFCAP =       0 NEXTRA =       0
 NCOPY  =       0

     BOX TYPE: TRUNCATED OCTAHEDRON

--------------------------------------------------------------------------------
   2.  CONTROL  DATA  FOR  THE  RUN
--------------------------------------------------------------------------------

default_name

General flags:
     imin    =       0, nmropt  =       0

Nature and format of input:
     ntx     =       5, irest   =       1, ntrx    =       1

Nature and format of output:
     ntxo    =       2, ntpr    =    1000, ntrx    =       1, ntwr    =    1000
     iwrap   =       0, ntwx    =   50000, ntwv    =      -1, ntwe    =       0
     ioutfm  =       1, ntwprt  =       0, idecomp =       0, rbornstat=      0

Potential function:
     ntf     =       2, ntb     =       2, igb     =       0, nsnb    =      25
     ipol    =       0, gbsa    =       0, iesp    =       0
     dielc   =   1.00000, cut     =  10.00000, intdiel =   1.00000

Frozen or restrained atoms:
     ibelly  =       0, ntr     =       0

Molecular dynamics:
     nstlim  =    500000, nscm    =      1000, nrespa  =         1
     t       =   0.00000, dt      =   0.00200, vlimit  =  -1.00000

Langevin dynamics temperature regulation:
     ig      =  561068
     temp0   = 300.00000, tempi   = 300.00000, gamma_ln=   2.00000

Pressure regulation:
     ntp     =       1
     pres0   =   1.01325, comp    =  44.60000, taup    =   5.00000

SHAKE:
     ntc     =       2, jfastw  =       0
     tol     =   0.00001

Free energy options:
     icfe    =       1, ifsc    =       0, klambda =       1
     clambda =  0.1150, scalpha =  0.5000, scbeta  = 12.0000
     sceeorder =       2
     dynlmb =  0.0000 logdvdl =       0

Ewald parameters:
     verbose =       0, ew_type =       0, nbflag  =       1, use_pme =       1
     vdwmeth =       1, eedmeth =       1, netfrc  =       1
     Box X =   67.054   Box Y =   67.054   Box Z =   67.054
     Alpha =  109.471   Beta  =  109.471   Gamma =  109.471
     NFFT1 =   64       NFFT2 =   64       NFFT3 =   64
     Cutoff=   10.000   Tol   =0.100E-04
     Ewald Coefficient =  0.27511
     Interpolation order =    4
     TI Mask 1 :1; matches     12 atoms
     TI Mask 2 :2; matches     12 atoms
     TI region 1:      12 atoms
     TI region 2:      12 atoms
Removing charge of      -0.6664 from atom      13
Removing charge of      -0.6664 from atom      14
Removing charge of      -0.0664 from atom      15
Removing charge of      -0.0664 from atom      16
Removing charge of       0.2792 from atom      17
Removing charge of       0.2802 from atom      18
Removing charge of       0.2802 from atom      19
Removing charge of       0.2792 from atom      20
Removing charge of       0.0898 from atom      21
Removing charge of       0.0837 from atom      22
Removing charge of       0.0898 from atom      23
Removing charge of       0.0837 from atom      24
Total charge of  -0.00000000 removed from      12 atoms
     Checking for mismatched coordinates.

--------------------------------------------------------------------------------
   3.  ATOMIC COORDINATES AND VELOCITIES
--------------------------------------------------------------------------------

default_name
 begin time read from input coords =   200.000 ps

 Number of triangulated 3-point waters found:        0

     Sum of charges for TI region  1 =  -0.00000000
     Forcing neutrality...

     Sum of charges for TI region  2 =   0.00000000
     Forcing neutrality...

--------------------------------------------------------------------------------
   4.  RESULTS
 NSTEP =     1000   TIME(PS) =     202.000  TEMP(K) =   257.05  PRESS =     0.5
 Etot   =        29.5973  EKtot   =         7.1513  EPtot      =        22.4460
 BOND   =         1.4744  ANGLE   =         8.7216  DIHED      =         0.7466
 1-4 NB =         0.4324  1-4 EEL =        34.5562  VDWAALS    =        -0.1028
 EELEC  =       -23.3824  EHBOND  =         0.0000  RESTRAINT  =         0.0000
 EKCMT  =         1.2429  VIRIAL  =        -1.0982  VOLUME     =    232081.4419
                                                    Density    =         0.0004
 DV/DL  =       -12.6265
 ------------------------------------------------------------------------------

      A V E R A G E S   O V E R    1000 S T E P S

 NSTEP =     1000   TIME(PS) =     202.000  TEMP(K) =   282.99  PRESS =     0.5
 Etot   =        26.6730  EKtot   =         7.8729  EPtot      =        18.8001
 BOND   =         0.8539  ANGLE   =         5.1929  DIHED      =         0.9257
 1-4 NB =         0.4818  1-4 EEL =        36.3178  VDWAALS    =        -0.1035
 EELEC  =       -24.8684  EHBOND  =         0.0000  RESTRAINT  =         0.0000
 EKCMT  =         1.3791  VIRIAL  =        -1.0443  VOLUME     =    232082.4773
                                                    Density    =         0.0004
 DV/DL  =       -12.9379
 ------------------------------------------------------------------------------

      R M S  F L U C T U A T I O N S

 NSTEP =     1000   TIME(PS) =     202.000  TEMP(K) =    55.74  PRESS =     0.2
 Etot   =         1.3477  EKtot   =         1.5507  EPtot      =         1.4770
 BOND   =         0.6396  ANGLE   =         1.3642  DIHED      =         0.5418
 1-4 NB =         0.2777  1-4 EEL =         1.5908  VDWAALS    =         0.0133
 EELEC  =         1.6430  EHBOND  =         0.0000  RESTRAINT  =         0.0000
 EKCMT  =         0.7028  VIRIAL  =         0.2478  VOLUME     =         0.6598
                                                    Density    =         0.0000
 DV/DL  =         0.3898
 ------------------------------------------------------------------------------

      A V E R A G E S   O V E R    1000 S T E P S

 NSTEP =     1000   TIME(PS) =     202.000  TEMP(K) =   282.99  PRESS =     0.5
 Etot   =        26.6730  EKtot   =         7.8729  EPtot      =        18.8001
 BOND   =         0.8539  ANGLE   =         5.1929  DIHED      =         0.9257
 1-4 NB =         0.4818  1-4 EEL =        36.3178  VDWAALS    =        -0.1035
 EELEC  =       -24.8684  EHBOND  =         0.0000  RESTRAINT  =         0.0000
 EKCMT  =         1.3791  VIRIAL  =        -1.0443  VOLUME     =    232082.4773
                                                    Density    =         0.0004
 DV/DL  =       -12.9379
 ------------------------------------------------------------------------------

      R M S  F L U C T U A T I O N S

 NSTEP =     1000   TIME(PS) =     202.000  TEMP(K) =    55.74  PRESS =     0.2
 Etot   =         1.3477  EKtot   =         1.5507  EPtot      =         1.4770
 BOND   =         0.6396  ANGLE   =         1.3642  DIHED      =         0.5418
 1-4 NB =         0.2777  1-4 EEL =         1.5908  VDWAALS    =         0.0133
 EELEC  =         1.6430  EHBOND  =         0.0000  RESTRAINT  =         0.0000
 EKCMT  =         0.7028  VIRIAL  =         0.2478  VOLUME     =         0.6598
                                                    Density    =         0.0000
 DV/DL  =         0.3898
 ------------------------------------------------------------------------------

      DV/DL, AVERAGES OVER    1000 STEPS

 NSTEP =     1000   TIME(PS) =     202.000  TEMP(K) =    55.74  PRESS =     0.0
 Etot   =         0.0000  EKtot   =         0.0000  EPtot      =       -12.9379
 BOND   =         0.0000  ANGLE   =         0.0000  DIHED      =         0.0000
 1-4 NB =         0.0000  1-4 EEL =       -41.0394  VDWAALS    =         0.0000
 EELEC  =        28.1015  EHBOND  =         0.0000  RESTRAINT  =         0.0000
 EKCMT  =         0.0000  VIRIAL  =         0.0000  VOLUME     =         0.0000
                                                    Density    =         0.0000
 DV/DL  =       -12.9379
 ------------------------------------------------------------------------------

      A V E R A G E S   O V E R    1000 S T E P S

 NSTEP =     2000   TIME(PS) =     204.000  TEMP(K) =   291.79  PRESS =     0.7
 Etot   =        26.5215  EKtot   =         8.1177  EPtot      =        18.4038
 BOND   =         0.8609  ANGLE   =         4.2730  DIHED      =         1.3780
 1-4 NB =         0.5656  1-4 EEL =        36.1698  VDWAALS    =        -0.0983
 EELEC  =       -24.7454  EHBOND  =         0.0000  RESTRAINT  =         0.0000
 EKCMT  =         2.5947  VIRIAL  =        -1.0424  VOLUME     =    232080.8968
                                                    Density    =         0.0004
 DV/DL  =       -12.9098
 ------------------------------------------------------------------------------

      R M S  F L U C T U A T I O N S

 NSTEP =     2000   TIME(PS) =     204.000  TEMP(K) =    57.17  PRESS =     0.2
 Etot   =         1.5466  EKtot   =         1.5906  EPtot      =         1.6272
 BOND   =         0.6428  ANGLE   =         1.4180  DIHED      =         0.8815
 1-4 NB =         0.3973  1-4 EEL =         2.5217  VDWAALS    =         0.0213
 EELEC  =         2.5719  EHBOND  =         0.0000  RESTRAINT  =         0.0000
 EKCMT  =         1.1985  VIRIAL  =         0.2567  VOLUME     =         0.3780
                                                    Density    =         0.0000
 DV/DL  =         0.4257
 ------------------------------------------------------------------------------

      A V E R A G E S   O V E R    1000 S T E P S

 NSTEP =     2000   TIME(PS) =     204.000  TEMP(K) =   291.79  PRESS =     0.7
 Etot   =        26.5215  EKtot   =         8.1177  EPtot      =        18.4038
 BOND   =         0.8609  ANGLE   =         4.2730  DIHED      =         1.3780
 1-4 NB =         0.5656  1-4 EEL =        36.1698  VDWAALS    =        -0.0983
 EELEC  =       -24.7454  EHBOND  =         0.0000  RESTRAINT  =         0.0000
 EKCMT  =         2.5947  VIRIAL  =        -1.0424  VOLUME     =    232080.8968
                                                    Density    =         0.0004
 DV/DL  =       -12.9098
 ------------------------------------------------------------------------------

      R M S  F L U C T U A T I O N S

 NSTEP =     2000   TIME(PS) =     204.000  TEMP(K) =    57.17  PRESS =     0.2
 Etot   =         1.5466  EKtot   =         1.5906  EPtot      =         1.6272
 BOND   =         0.6428  ANGLE   =         1.4180  DIHED      =         0.8815
 1-4 NB =         0.3973  1-4 EEL =         2.5217  VDWAALS    =         0.0213
 EELEC  =         2.5719  EHBOND  =         0.0000  RESTRAINT  =         0.0000
 EKCMT  =         1.1985  VIRIAL  =         0.2567  VOLUME     =         0.3780
                                                    Density    =         0.0000
 DV/DL  =         0.4257
 ------------------------------------------------------------------------------

      DV/DL, AVERAGES OVER    1000 STEPS

 NSTEP =     2000   TIME(PS) =     204.000  TEMP(K) =    57.17  PRESS =     0.0
 Etot   =         0.0000  EKtot   =         0.0000  EPtot      =       -12.9098
 BOND   =         0.0000  ANGLE   =         0.0000  DIHED      =         0.0000
 1-4 NB =         0.0000  1-4 EEL =       -40.8722  VDWAALS    =         0.0000
 EELEC  =        27.9624  EHBOND  =         0.0000  RESTRAINT  =         0.0000
 EKCMT  =         0.0000  VIRIAL  =         0.0000  VOLUME     =         0.0000
                                                    Density    =         0.0000
 DV/DL  =       -12.9098
 ------------------------------------------------------------------------------

      A V E R A G E S   O V E R    1000 S T E P S

 NSTEP =   500000   TIME(PS) =    1200.000  TEMP(K) =   293.16  PRESS =     0.5
 Etot   =        26.9476  EKtot   =         8.1558  EPtot      =        18.7917
 BOND   =         0.9534  ANGLE   =         5.3662  DIHED      =         1.0738
 1-4 NB =         0.6044  1-4 EEL =        35.8111  VDWAALS    =        -0.0989
 EELEC  =       -24.9182  EHBOND  =         0.0000  RESTRAINT  =         0.0000
 EKCMT  =         1.2053  VIRIAL  =        -1.1157  VOLUME     =    231175.2000
                                                    Density    =         0.0004
 DV/DL  =       -12.3090
 ------------------------------------------------------------------------------

      R M S  F L U C T U A T I O N S

 NSTEP =   500000   TIME(PS) =    1200.000  TEMP(K) =    62.68  PRESS =     0.2
 Etot   =         1.7902  EKtot   =         1.7437  EPtot      =         1.7672
 BOND   =         0.6803  ANGLE   =         1.5004  DIHED      =         0.7199
 1-4 NB =         0.4785  1-4 EEL =         2.1373  VDWAALS    =         0.0185
 EELEC  =         2.4892  EHBOND  =         0.0000  RESTRAINT  =         0.0000
 EKCMT  =         0.8353  VIRIAL  =         0.3149  VOLUME     =         0.6614
                                                    Density    =         0.0000
 DV/DL  =         0.6682
 ------------------------------------------------------------------------------

      A V E R A G E S   O V E R    1000 S T E P S

 NSTEP =   500000   TIME(PS) =    1200.000  TEMP(K) =   293.16  PRESS =     0.5
 Etot   =        26.9476  EKtot   =         8.1558  EPtot      =        18.7917
 BOND   =         0.9534  ANGLE   =         5.3662  DIHED      =         1.0738
 1-4 NB =         0.6044  1-4 EEL =        35.8111  VDWAALS    =        -0.0989
 EELEC  =       -24.9182  EHBOND  =         0.0000  RESTRAINT  =         0.0000
 EKCMT  =         1.2053  VIRIAL  =        -1.1157  VOLUME     =    231175.2000
                                                    Density    =         0.0004
 DV/DL  =       -12.3090
 ------------------------------------------------------------------------------

      R M S  F L U C T U A T I O N S

 NSTEP =   500000   TIME(PS) =    1200.000  TEMP(K) =    62.68  PRESS =     0.2
 Etot   =         1.7902  EKtot   =         1.7437  EPtot      =         1.7672
 BOND   =         0.6803  ANGLE   =         1.5004  DIHED      =         0.7199
 1-4 NB =         0.4785  1-4 EEL =         2.1373  VDWAALS    =         0.0185
 EELEC  =         2.4892  EHBOND  =         0.0000  RESTRAINT  =         0.0000
 EKCMT  =         0.8353  VIRIAL  =         0.3149  VOLUME     =         0.6614
                                                    Density    =         0.0000
 DV/DL  =         0.6682
 ------------------------------------------------------------------------------

      DV/DL, AVERAGES OVER    1000 STEPS

 NSTEP =   500000   TIME(PS) =    1200.000  TEMP(K) =    62.68  PRESS =     0.0
 Etot   =         0.0000  EKtot   =         0.0000  EPtot      =       -12.3090
 BOND   =         0.0000  ANGLE   =         0.0000  DIHED      =         0.0000
 1-4 NB =         0.0000  1-4 EEL =       -40.4668  VDWAALS    =         0.0000
 EELEC  =        28.1577  EHBOND  =         0.0000  RESTRAINT  =         0.0000
 EKCMT  =         0.0000  VIRIAL  =         0.0000  VOLUME     =         0.0000
                                                    Density    =         0.0000
 DV/DL  =       -12.3090
 ------------------------------------------------------------------------------

      A V E R A G E S   O V E R  500000 S T E P S

 NSTEP =   500000   TIME(PS) =    1200.000  TEMP(K) =   298.92  PRESS =     0.6
 Etot   =        26.8539  EKtot   =         8.3161  EPtot      =        18.5378
 BOND   =         0.9518  ANGLE   =         4.8883  DIHED      =         1.1230
 1-4 NB =         0.5183  1-4 EEL =        34.1127  VDWAALS    =        -0.1059
 EELEC  =       -22.9505  EHBOND  =         0.0000  RESTRAINT  =         0.0000
 EKCMT  =         1.8146  VIRIAL  =        -1.0513  VOLUME     =    231631.6425
                                                    Density    =         0.0004
 DV/DL  =       -12.6134
 ------------------------------------------------------------------------------

      R M S  F L U C T U A T I O N S

 NSTEP =   500000   TIME(PS) =    1200.000  TEMP(K) =    79.50  PRESS =     0.3
 Etot   =         3.0828  EKtot   =         2.2118  EPtot      =         2.1476
 BOND   =         0.7814  ANGLE   =         1.7258  DIHED      =         0.7957
 1-4 NB =         0.4487  1-4 EEL =         3.9213  VDWAALS    =         0.0346
 EELEC  =         4.1819  EHBOND  =         0.0000  RESTRAINT  =         0.0000
 EKCMT  =         1.4836  VIRIAL  =         0.3086  VOLUME     =       262.6507
                                                    Density    =         0.0000
 DV/DL  =         0.6357
 ------------------------------------------------------------------------------

      A V E R A G E S   O V E R  500000 S T E P S

 NSTEP =   500000   TIME(PS) =    1200.000  TEMP(K) =   298.92  PRESS =     0.6
 Etot   =        26.8539  EKtot   =         8.3161  EPtot      =        18.5378
 BOND   =         0.9518  ANGLE   =         4.8883  DIHED      =         1.1230
 1-4 NB =         0.5183  1-4 EEL =        34.1127  VDWAALS    =        -0.1059
 EELEC  =       -22.9505  EHBOND  =         0.0000  RESTRAINT  =         0.0000
 EKCMT  =         1.8146  VIRIAL  =        -1.0513  VOLUME     =    231631.6425
                                                    Density    =         0.0004
 DV/DL  =       -12.6134
 ------------------------------------------------------------------------------

      R M S  F L U C T U A T I O N S

 NSTEP =   500000   TIME(PS) =    1200.000  TEMP(K) =    79.50  PRESS =     0.3
 Etot   =         3.0828  EKtot   =         2.2118  EPtot      =         2.1476
 BOND   =         0.7814  ANGLE   =         1.7258  DIHED      =         0.7957
 1-4 NB =         0.4487  1-4 EEL =         3.9213  VDWAALS    =         0.0346
 EELEC  =         4.1819  EHBOND  =         0.0000  RESTRAINT  =         0.0000
 EKCMT  =         1.4836  VIRIAL  =         0.3086  VOLUME     =       262.6507
                                                    Density    =         0.0000
 DV/DL  =         0.6357
 ------------------------------------------------------------------------------

      DV/DL, AVERAGES OVER  500000 STEPS

 NSTEP =   500000   TIME(PS) =    1200.000  TEMP(K) =    79.50  PRESS =     0.0
 Etot   =         0.0000  EKtot   =         0.0000  EPtot      =       -12.6134
 BOND   =         0.0000  ANGLE   =         0.0000  DIHED      =         0.0000
 1-4 NB =         0.0000  1-4 EEL =       -38.5476  VDWAALS    =         0.0000
 EELEC  =        25.9342  EHBOND  =         0.0000  RESTRAINT  =         0.0000
 EKCMT  =         0.0000  VIRIAL  =         0.0000  VOLUME     =         0.0000
                                                    Density    =         0.0000
 DV/DL  =       -12.6134
 ------------------------------------------------------------------------------
