-------------------------------------------------------
          Amber 18 PMEMD                              2018
          -------------------------------------------------------

  [-O]verwriting output

File Assignments:

 Here is the input file:

 &cntrl
   nstlim=500000, nscm=1000,
   ntx=5, irest=1, ntpr=1000,
   tempi=300.0, temp0=300.0, ntt=3, gamma_ln=2.0,
   ntp=1, pres0=1.01325, taup=5.0,
   ntb=2, igb=0, cut=10.0,
   dt=0.002, ig=-1,
   ntc=2, ntf=2,
   iwrap=0,
   ntwr=1000, ntwx=50000, ntave=1000,
   ioutfm=1, ntwv=-1,
   ifsc = 0, icfe=1,
   clambda=0.43738,
   timask1=':1',
   timask2=':2', crgmask = ':2',
/

Note: ig = -1. Setting random seed to   336458 based on wallclock time in
      microseconds.

--------------------------------------------------------------------------------
   1.  RESOURCE   USE:
--------------------------------------------------------------------------------

 getting box info from netcdf restart file
 NATOM  =   20967 NTYPES =       6 NBONH =   20959 MBONA  =       6
 NTHETH =      32 MTHETA =       4 NPHIH =      40 MPHIA  =       2
 NHPARM =       0 NPARM  =       0 NNB   =   28026 NRES   =    6983
 NBONA  =       6 NTHETA =       4 NPHIA =       2 NUMBND =       6
 NUMANG =       6 NPTRA  =       2 NATYP =       6 NPHB   =       1
 IFBOX  =       2 NMXRS  =      12 IFCAP =       0 NEXTRA =       0
 NCOPY  =       0

     BOX TYPE: TRUNCATED OCTAHEDRON

--------------------------------------------------------------------------------
   2.  CONTROL  DATA  FOR  THE  RUN
--------------------------------------------------------------------------------

default_name

General flags:
     imin    =       0, nmropt  =       0

Nature and format of input:
     ntx     =       5, irest   =       1, ntrx    =       1

Nature and format of output:
     ntxo    =       2, ntpr    =    1000, ntrx    =       1, ntwr    =    1000
     iwrap   =       0, ntwx    =   50000, ntwv    =      -1, ntwe    =       0
     ioutfm  =       1, ntwprt  =       0, idecomp =       0, rbornstat=      0

Potential function:
     ntf     =       2, ntb     =       2, igb     =       0, nsnb    =      25
     ipol    =       0, gbsa    =       0, iesp    =       0
     dielc   =   1.00000, cut     =  10.00000, intdiel =   1.00000

Frozen or restrained atoms:
     ibelly  =       0, ntr     =       0

Molecular dynamics:
     nstlim  =    500000, nscm    =      1000, nrespa  =         1
     t       =   0.00000, dt      =   0.00200, vlimit  =  -1.00000

Langevin dynamics temperature regulation:
     ig      =  336458
     temp0   = 300.00000, tempi   = 300.00000, gamma_ln=   2.00000

Pressure regulation:
     ntp     =       1
     pres0   =   1.01325, comp    =  44.60000, taup    =   5.00000

SHAKE:
     ntc     =       2, jfastw  =       0
     tol     =   0.00001

Free energy options:
     icfe    =       1, ifsc    =       0, klambda =       1
     clambda =  0.4374, scalpha =  0.5000, scbeta  = 12.0000
     sceeorder =       2
     dynlmb =  0.0000 logdvdl =       0

Ewald parameters:
     verbose =       0, ew_type =       0, nbflag  =       1, use_pme =       1
     vdwmeth =       1, eedmeth =       1, netfrc  =       1
     Box X =   67.054   Box Y =   67.054   Box Z =   67.054
     Alpha =  109.471   Beta  =  109.471   Gamma =  109.471
     NFFT1 =   64       NFFT2 =   64       NFFT3 =   64
     Cutoff=   10.000   Tol   =0.100E-04
     Ewald Coefficient =  0.27511
     Interpolation order =    4
     TI Mask 1 :1; matches     12 atoms
     TI Mask 2 :2; matches     12 atoms
     TI region 1:   20955 atoms
     TI region 2:   20955 atoms
Removing charge of      -0.6664 from atom      13
Removing charge of      -0.6664 from atom      14
Removing charge of      -0.0664 from atom      15
Removing charge of      -0.0664 from atom      16
Removing charge of       0.2792 from atom      17
Removing charge of       0.2802 from atom      18
Removing charge of       0.2802 from atom      19
Removing charge of       0.2792 from atom      20
Removing charge of       0.0898 from atom      21
Removing charge of       0.0837 from atom      22
Removing charge of       0.0898 from atom      23
Removing charge of       0.0837 from atom      24
Total charge of  -0.00000000 removed from      12 atoms
     Checking for mismatched coordinates.

--------------------------------------------------------------------------------
   3.  ATOMIC COORDINATES AND VELOCITIES
--------------------------------------------------------------------------------

default_name
 begin time read from input coords =   200.000 ps

 Number of triangulated 3-point waters found:     6981

     Sum of charges for TI region  1 =  -0.00000000
     Forcing neutrality...

     Sum of charges for TI region  2 =   0.00000000
     Forcing neutrality...

--------------------------------------------------------------------------------
   4.  RESULTS
 NSTEP =     1000   TIME(PS) =     202.000  TEMP(K) =   300.77  PRESS =  -729.8
 Etot   =    -53162.0721  EKtot   =     12525.5455  EPtot      =    -65687.6177
 BOND   =         0.1545  ANGLE   =         2.9444  DIHED      =         0.9091
 1-4 NB =         0.6411  1-4 EEL =        23.8836  VDWAALS    =      9664.8292
 EELEC  =    -75380.9796  EHBOND  =         0.0000  RESTRAINT  =         0.0000
 EKCMT  =      6307.9244  VIRIAL  =      9912.5434  VOLUME     =    228745.9399
                                                    Density    =         0.9135
 DV/DL  =        -2.1184
 ------------------------------------------------------------------------------

      A V E R A G E S   O V E R    1000 S T E P S

 NSTEP =     1000   TIME(PS) =     202.000  TEMP(K) =   300.63  PRESS =  -811.7
 Etot   =    -52882.0525  EKtot   =     12519.8557  EPtot      =    -65401.9082
 BOND   =         0.8083  ANGLE   =         4.3931  DIHED      =         1.6776
 1-4 NB =         0.6453  1-4 EEL =        22.2746  VDWAALS    =      9562.1320
 EELEC  =    -74993.8390  EHBOND  =         0.0000  RESTRAINT  =         0.0000
 EKCMT  =      6257.3499  VIRIAL  =     10295.4357  VOLUME     =    230364.5964
                                                    Density    =         0.9071
 DV/DL  =        -6.4816
 ------------------------------------------------------------------------------

      R M S  F L U C T U A T I O N S

 NSTEP =     1000   TIME(PS) =     202.000  TEMP(K) =     2.06  PRESS =   127.2
 Etot   =       134.5351  EKtot   =        85.6377  EPtot      =       104.9373
 BOND   =         0.6141  ANGLE   =         1.4922  DIHED      =         1.0727
 1-4 NB =         0.7216  1-4 EEL =         1.7341  VDWAALS    =       120.4764
 EELEC  =       172.3058  EHBOND  =         0.0000  RESTRAINT  =         0.0000
 EKCMT  =        53.6145  VIRIAL  =       629.7395  VOLUME     =       947.4005
                                                    Density    =         0.0037
 DV/DL  =         2.5596
 ------------------------------------------------------------------------------

      A V E R A G E S   O V E R    1000 S T E P S

 NSTEP =     1000   TIME(PS) =     202.000  TEMP(K) =   300.63  PRESS =  -811.7
 Etot   =    -52882.0525  EKtot   =     12519.8557  EPtot      =    -65401.9082
 BOND   =         0.8083  ANGLE   =         4.3931  DIHED      =         1.6776
 1-4 NB =         0.6453  1-4 EEL =        22.2746  VDWAALS    =      9562.1320
 EELEC  =    -74993.8390  EHBOND  =         0.0000  RESTRAINT  =         0.0000
 EKCMT  =      6257.3499  VIRIAL  =     10295.4357  VOLUME     =    230364.5964
                                                    Density    =         0.9071
 DV/DL  =        -6.4816
 ------------------------------------------------------------------------------

      R M S  F L U C T U A T I O N S

 NSTEP =     1000   TIME(PS) =     202.000  TEMP(K) =     2.06  PRESS =   127.2
 Etot   =       134.5351  EKtot   =        85.6377  EPtot      =       104.9373
 BOND   =         0.6141  ANGLE   =         1.4922  DIHED      =         1.0727
 1-4 NB =         0.7216  1-4 EEL =         1.7341  VDWAALS    =       120.4764
 EELEC  =       172.3058  EHBOND  =         0.0000  RESTRAINT  =         0.0000
 EKCMT  =        53.6145  VIRIAL  =       629.7395  VOLUME     =       947.4005
                                                    Density    =         0.0037
 DV/DL  =         2.5596
 ------------------------------------------------------------------------------

      DV/DL, AVERAGES OVER    1000 STEPS

 NSTEP =     1000   TIME(PS) =     202.000  TEMP(K) =     2.06  PRESS =     0.0
 Etot   =         0.0000  EKtot   =         0.0000  EPtot      =        -6.4816
 BOND   =         0.0000  ANGLE   =         0.0000  DIHED      =         0.0000
 1-4 NB =         0.0000  1-4 EEL =       -39.5908  VDWAALS    =         0.0000
 EELEC  =        33.1091  EHBOND  =         0.0000  RESTRAINT  =         0.0000
 EKCMT  =         0.0000  VIRIAL  =         0.0000  VOLUME     =         0.0000
                                                    Density    =         0.0000
 DV/DL  =        -6.4816
 ------------------------------------------------------------------------------

      A V E R A G E S   O V E R    1000 S T E P S

 NSTEP =     2000   TIME(PS) =     204.000  TEMP(K) =   299.92  PRESS =  -755.1
 Etot   =    -53137.2038  EKtot   =     12490.3910  EPtot      =    -65627.5947
 BOND   =         0.9654  ANGLE   =         4.2345  DIHED      =         1.3039
 1-4 NB =         0.6553  1-4 EEL =        22.6390  VDWAALS    =      9589.4842
 EELEC  =    -75246.8771  EHBOND  =         0.0000  RESTRAINT  =         0.0000
 EKCMT  =      6272.7335  VIRIAL  =      9976.8773  VOLUME     =    227204.6871
                                                    Density    =         0.9197
 DV/DL  =        -7.5666
 ------------------------------------------------------------------------------

      R M S  F L U C T U A T I O N S

 NSTEP =     2000   TIME(PS) =     204.000  TEMP(K) =     1.69  PRESS =   122.7
 Etot   =       129.7625  EKtot   =        70.1878  EPtot      =       120.7391
 BOND   =         0.7709  ANGLE   =         1.4558  DIHED      =         0.8833
 1-4 NB =         0.6052  1-4 EEL =         1.6196  VDWAALS    =       121.5007
 EELEC  =       186.7541  EHBOND  =         0.0000  RESTRAINT  =         0.0000
 EKCMT  =        52.3947  VIRIAL  =       605.8353  VOLUME     =       899.6395
                                                    Density    =         0.0036
 DV/DL  =         2.9737
 ------------------------------------------------------------------------------

      A V E R A G E S   O V E R    1000 S T E P S

 NSTEP =     2000   TIME(PS) =     204.000  TEMP(K) =   299.92  PRESS =  -755.1
 Etot   =    -53137.2038  EKtot   =     12490.3910  EPtot      =    -65627.5947
 BOND   =         0.9654  ANGLE   =         4.2345  DIHED      =         1.3039
 1-4 NB =         0.6553  1-4 EEL =        22.6390  VDWAALS    =      9589.4842
 EELEC  =    -75246.8771  EHBOND  =         0.0000  RESTRAINT  =         0.0000
 EKCMT  =      6272.7335  VIRIAL  =      9976.8773  VOLUME     =    227204.6871
                                                    Density    =         0.9197
 DV/DL  =        -7.5666
 ------------------------------------------------------------------------------

      R M S  F L U C T U A T I O N S

 NSTEP =     2000   TIME(PS) =     204.000  TEMP(K) =     1.69  PRESS =   122.7
 Etot   =       129.7625  EKtot   =        70.1878  EPtot      =       120.7391
 BOND   =         0.7709  ANGLE   =         1.4558  DIHED      =         0.8833
 1-4 NB =         0.6052  1-4 EEL =         1.6196  VDWAALS    =       121.5007
 EELEC  =       186.7541  EHBOND  =         0.0000  RESTRAINT  =         0.0000
 EKCMT  =        52.3947  VIRIAL  =       605.8353  VOLUME     =       899.6395
                                                    Density    =         0.0036
 DV/DL  =         2.9737
 ------------------------------------------------------------------------------

      DV/DL, AVERAGES OVER    1000 STEPS

 NSTEP =     2000   TIME(PS) =     204.000  TEMP(K) =     1.69  PRESS =     0.0
 Etot   =         0.0000  EKtot   =         0.0000  EPtot      =        -7.5666
 BOND   =         0.0000  ANGLE   =         0.0000  DIHED      =         0.0000
 1-4 NB =         0.0000  1-4 EEL =       -40.2386  VDWAALS    =         0.0000
 EELEC  =        32.6720  EHBOND  =         0.0000  RESTRAINT  =         0.0000
 EKCMT  =         0.0000  VIRIAL  =         0.0000  VOLUME     =         0.0000
                                                    Density    =         0.0000
 DV/DL  =        -7.5666
 ------------------------------------------------------------------------------

      A V E R A G E S   O V E R    1000 S T E P S

 NSTEP =   500000   TIME(PS) =    1200.000  TEMP(K) =   299.97  PRESS =   -31.2
 Etot   =    -54035.3082  EKtot   =     12492.3215  EPtot      =    -66527.6296
 BOND   =         1.0711  ANGLE   =         5.6393  DIHED      =         1.1520
 1-4 NB =         0.6513  1-4 EEL =        23.0606  VDWAALS    =      9896.2460
 EELEC  =    -76455.4499  EHBOND  =         0.0000  RESTRAINT  =         0.0000
 EKCMT  =      6262.5959  VIRIAL  =      6405.6612  VOLUME     =    212284.8893
                                                    Density    =         0.9843
 DV/DL  =        -9.2542
 ------------------------------------------------------------------------------

      R M S  F L U C T U A T I O N S

 NSTEP =   500000   TIME(PS) =    1200.000  TEMP(K) =     1.80  PRESS =   132.9
 Etot   =        75.7665  EKtot   =        75.1028  EPtot      =        76.4567
 BOND   =         0.8750  ANGLE   =         1.7211  DIHED      =         0.7061
 1-4 NB =         0.5426  1-4 EEL =         1.5441  VDWAALS    =       119.9465
 EELEC  =       147.2739  EHBOND  =         0.0000  RESTRAINT  =         0.0000
 EKCMT  =        49.2190  VIRIAL  =       608.6802  VOLUME     =        68.1389
                                                    Density    =         0.0003
 DV/DL  =         2.8360
 ------------------------------------------------------------------------------

      A V E R A G E S   O V E R    1000 S T E P S

 NSTEP =   500000   TIME(PS) =    1200.000  TEMP(K) =   299.97  PRESS =   -31.2
 Etot   =    -54035.3082  EKtot   =     12492.3215  EPtot      =    -66527.6296
 BOND   =         1.0711  ANGLE   =         5.6393  DIHED      =         1.1520
 1-4 NB =         0.6513  1-4 EEL =        23.0606  VDWAALS    =      9896.2460
 EELEC  =    -76455.4499  EHBOND  =         0.0000  RESTRAINT  =         0.0000
 EKCMT  =      6262.5959  VIRIAL  =      6405.6612  VOLUME     =    212284.8893
                                                    Density    =         0.9843
 DV/DL  =        -9.2542
 ------------------------------------------------------------------------------

      R M S  F L U C T U A T I O N S

 NSTEP =   500000   TIME(PS) =    1200.000  TEMP(K) =     1.80  PRESS =   132.9
 Etot   =        75.7665  EKtot   =        75.1028  EPtot      =        76.4567
 BOND   =         0.8750  ANGLE   =         1.7211  DIHED      =         0.7061
 1-4 NB =         0.5426  1-4 EEL =         1.5441  VDWAALS    =       119.9465
 EELEC  =       147.2739  EHBOND  =         0.0000  RESTRAINT  =         0.0000
 EKCMT  =        49.2190  VIRIAL  =       608.6802  VOLUME     =        68.1389
                                                    Density    =         0.0003
 DV/DL  =         2.8360
 ------------------------------------------------------------------------------

      DV/DL, AVERAGES OVER    1000 STEPS

 NSTEP =   500000   TIME(PS) =    1200.000  TEMP(K) =     1.80  PRESS =     0.0
 Etot   =         0.0000  EKtot   =         0.0000  EPtot      =        -9.2542
 BOND   =         0.0000  ANGLE   =         0.0000  DIHED      =         0.0000
 1-4 NB =         0.0000  1-4 EEL =       -40.9879  VDWAALS    =         0.0000
 EELEC  =        31.7338  EHBOND  =         0.0000  RESTRAINT  =         0.0000
 EKCMT  =         0.0000  VIRIAL  =         0.0000  VOLUME     =         0.0000
                                                    Density    =         0.0000
 DV/DL  =        -9.2542
 ------------------------------------------------------------------------------

      A V E R A G E S   O V E R  500000 S T E P S

 NSTEP =   500000   TIME(PS) =    1200.000  TEMP(K) =   300.04  PRESS =    -9.0
 Etot   =    -54084.4863  EKtot   =     12495.1380  EPtot      =    -66579.6243
 BOND   =         0.9307  ANGLE   =         4.7760  DIHED      =         1.1207
 1-4 NB =         0.4686  1-4 EEL =        20.5006  VDWAALS    =      9955.9664
 EELEC  =    -76563.3874  EHBOND  =         0.0000  RESTRAINT  =         0.0000
 EKCMT  =      6263.9573  VIRIAL  =      6307.2396  VOLUME     =    212748.0893
                                                    Density    =         0.9822
 DV/DL  =        -7.2623
 ------------------------------------------------------------------------------

      R M S  F L U C T U A T I O N S

 NSTEP =   500000   TIME(PS) =    1200.000  TEMP(K) =     2.05  PRESS =   145.8
 Etot   =       175.5850  EKtot   =        85.4146  EPtot      =       151.2803
 BOND   =         0.7613  ANGLE   =         1.7119  DIHED      =         0.8082
 1-4 NB =         0.4664  1-4 EEL =         3.4131  VDWAALS    =       128.5700
 EELEC  =       230.5794  EHBOND  =         0.0000  RESTRAINT  =         0.0000
 EKCMT  =        60.8356  VIRIAL  =       677.9329  VOLUME     =      1367.2851
                                                    Density    =         0.0060
 DV/DL  =         3.1488
 ------------------------------------------------------------------------------

      A V E R A G E S   O V E R  500000 S T E P S

 NSTEP =   500000   TIME(PS) =    1200.000  TEMP(K) =   300.04  PRESS =    -9.0
 Etot   =    -54084.4863  EKtot   =     12495.1380  EPtot      =    -66579.6243
 BOND   =         0.9307  ANGLE   =         4.7760  DIHED      =         1.1207
 1-4 NB =         0.4686  1-4 EEL =        20.5006  VDWAALS    =      9955.9664
 EELEC  =    -76563.3874  EHBOND  =         0.0000  RESTRAINT  =         0.0000
 EKCMT  =      6263.9573  VIRIAL  =      6307.2396  VOLUME     =    212748.0893
                                                    Density    =         0.9822
 DV/DL  =        -7.2623
 ------------------------------------------------------------------------------

      R M S  F L U C T U A T I O N S

 NSTEP =   500000   TIME(PS) =    1200.000  TEMP(K) =     2.05  PRESS =   145.8
 Etot   =       175.5850  EKtot   =        85.4146  EPtot      =       151.2803
 BOND   =         0.7613  ANGLE   =         1.7119  DIHED      =         0.8082
 1-4 NB =         0.4664  1-4 EEL =         3.4131  VDWAALS    =       128.5700
 EELEC  =       230.5794  EHBOND  =         0.0000  RESTRAINT  =         0.0000
 EKCMT  =        60.8356  VIRIAL  =       677.9329  VOLUME     =      1367.2851
                                                    Density    =         0.0060
 DV/DL  =         3.1488
 ------------------------------------------------------------------------------

      DV/DL, AVERAGES OVER  500000 STEPS

 NSTEP =   500000   TIME(PS) =    1200.000  TEMP(K) =     2.05  PRESS =     0.0
 Etot   =         0.0000  EKtot   =         0.0000  EPtot      =        -7.2623
 BOND   =         0.0000  ANGLE   =         0.0000  DIHED      =         0.0000
 1-4 NB =         0.0000  1-4 EEL =       -36.4378  VDWAALS    =         0.0000
 EELEC  =        29.1755  EHBOND  =         0.0000  RESTRAINT  =         0.0000
 EKCMT  =         0.0000  VIRIAL  =         0.0000  VOLUME     =         0.0000
                                                    Density    =         0.0000
 DV/DL  =        -7.2623
 ------------------------------------------------------------------------------
