-------------------------------------------------------
          Amber 18 PMEMD                              2018
          -------------------------------------------------------

  [-O]verwriting output

File Assignments:

 Here is the input file:

 &cntrl
   nstlim=500000, nscm=1000,
   ntx=5, irest=1, ntpr=1000,
   tempi=300.0, temp0=300.0, ntt=3, gamma_ln=2.0,
   ntp=1, pres0=1.01325, taup=5.0,
   ntb=2, igb=0, cut=10.0,
   dt=0.002, ig=-1,
   ntc=2, ntf=2,
   iwrap=0,
   ntwr=1000, ntwx=50000, ntave=1000,
   ioutfm=1, ntwv=-1,
   ifsc = 0, icfe=1,
   clambda=0.88495,
   timask1=':1',
   timask2=':2', crgmask = ':2',
/

Note: ig = -1. Setting random seed to   241349 based on wallclock time in
      microseconds.

--------------------------------------------------------------------------------
   1.  RESOURCE   USE:
--------------------------------------------------------------------------------

 getting box info from netcdf restart file
 NATOM  =      24 NTYPES =       6 NBONH =      16 MBONA  =       6
 NTHETH =      32 MTHETA =       4 NPHIH =      40 MPHIA  =       2
 NHPARM =       0 NPARM  =       0 NNB   =     102 NRES   =       2
 NBONA  =       6 NTHETA =       4 NPHIA =       2 NUMBND =       4
 NUMANG =       6 NPTRA  =       2 NATYP =       6 NPHB   =       1
 IFBOX  =       2 NMXRS  =      12 IFCAP =       0 NEXTRA =       0
 NCOPY  =       0

     BOX TYPE: TRUNCATED OCTAHEDRON

--------------------------------------------------------------------------------
   2.  CONTROL  DATA  FOR  THE  RUN
--------------------------------------------------------------------------------

default_name

General flags:
     imin    =       0, nmropt  =       0

Nature and format of input:
     ntx     =       5, irest   =       1, ntrx    =       1

Nature and format of output:
     ntxo    =       2, ntpr    =    1000, ntrx    =       1, ntwr    =    1000
     iwrap   =       0, ntwx    =   50000, ntwv    =      -1, ntwe    =       0
     ioutfm  =       1, ntwprt  =       0, idecomp =       0, rbornstat=      0

Potential function:
     ntf     =       2, ntb     =       2, igb     =       0, nsnb    =      25
     ipol    =       0, gbsa    =       0, iesp    =       0
     dielc   =   1.00000, cut     =  10.00000, intdiel =   1.00000

Frozen or restrained atoms:
     ibelly  =       0, ntr     =       0

Molecular dynamics:
     nstlim  =    500000, nscm    =      1000, nrespa  =         1
     t       =   0.00000, dt      =   0.00200, vlimit  =  -1.00000

Langevin dynamics temperature regulation:
     ig      =  241349
     temp0   = 300.00000, tempi   = 300.00000, gamma_ln=   2.00000

Pressure regulation:
     ntp     =       1
     pres0   =   1.01325, comp    =  44.60000, taup    =   5.00000

SHAKE:
     ntc     =       2, jfastw  =       0
     tol     =   0.00001

Free energy options:
     icfe    =       1, ifsc    =       0, klambda =       1
     clambda =  0.8850, scalpha =  0.5000, scbeta  = 12.0000
     sceeorder =       2
     dynlmb =  0.0000 logdvdl =       0

Ewald parameters:
     verbose =       0, ew_type =       0, nbflag  =       1, use_pme =       1
     vdwmeth =       1, eedmeth =       1, netfrc  =       1
     Box X =   67.054   Box Y =   67.054   Box Z =   67.054
     Alpha =  109.471   Beta  =  109.471   Gamma =  109.471
     NFFT1 =   64       NFFT2 =   64       NFFT3 =   64
     Cutoff=   10.000   Tol   =0.100E-04
     Ewald Coefficient =  0.27511
     Interpolation order =    4
     TI Mask 1 :1; matches     12 atoms
     TI Mask 2 :2; matches     12 atoms
     TI region 1:      12 atoms
     TI region 2:      12 atoms
Removing charge of      -0.6664 from atom      13
Removing charge of      -0.6664 from atom      14
Removing charge of      -0.0664 from atom      15
Removing charge of      -0.0664 from atom      16
Removing charge of       0.2792 from atom      17
Removing charge of       0.2802 from atom      18
Removing charge of       0.2802 from atom      19
Removing charge of       0.2792 from atom      20
Removing charge of       0.0898 from atom      21
Removing charge of       0.0837 from atom      22
Removing charge of       0.0898 from atom      23
Removing charge of       0.0837 from atom      24
Total charge of  -0.00000000 removed from      12 atoms
     Checking for mismatched coordinates.

--------------------------------------------------------------------------------
   3.  ATOMIC COORDINATES AND VELOCITIES
--------------------------------------------------------------------------------

default_name
 begin time read from input coords =   200.000 ps

 Number of triangulated 3-point waters found:        0

     Sum of charges for TI region  1 =  -0.00000000
     Forcing neutrality...

     Sum of charges for TI region  2 =   0.00000000
     Forcing neutrality...

--------------------------------------------------------------------------------
   4.  RESULTS
 NSTEP =     1000   TIME(PS) =     202.000  TEMP(K) =   253.78  PRESS =     1.8
 Etot   =        17.5236  EKtot   =         7.0603  EPtot      =        10.4633
 BOND   =         2.0408  ANGLE   =         4.1318  DIHED      =         1.9928
 1-4 NB =         0.8285  1-4 EEL =         3.2879  VDWAALS    =        -0.0619
 EELEC  =        -1.7567  EHBOND  =         0.0000  RESTRAINT  =         0.0000
 EKCMT  =         0.5728  VIRIAL  =        -8.3084  VOLUME     =    232086.0462
                                                    Density    =         0.0004
 DV/DL  =       -13.3088
 ------------------------------------------------------------------------------

      A V E R A G E S   O V E R    1000 S T E P S

 NSTEP =     1000   TIME(PS) =     202.000  TEMP(K) =   240.86  PRESS =     1.6
 Etot   =        14.0177  EKtot   =         6.7010  EPtot      =         7.3167
 BOND   =         0.8559  ANGLE   =         3.8646  DIHED      =         0.9167
 1-4 NB =         0.1798  1-4 EEL =         3.2404  VDWAALS    =        -0.0500
 EELEC  =        -1.6907  EHBOND  =         0.0000  RESTRAINT  =         0.0000
 EKCMT  =         1.5949  VIRIAL  =        -6.4074  VOLUME     =    232085.0804
                                                    Density    =         0.0004
 DV/DL  =       -13.4701
 ------------------------------------------------------------------------------

      R M S  F L U C T U A T I O N S

 NSTEP =     1000   TIME(PS) =     202.000  TEMP(K) =    66.04  PRESS =     0.4
 Etot   =         2.3134  EKtot   =         1.8373  EPtot      =         1.6501
 BOND   =         0.7027  ANGLE   =         1.2641  DIHED      =         0.5553
 1-4 NB =         0.2324  1-4 EEL =         0.0842  VDWAALS    =         0.0071
 EELEC  =         0.0585  EHBOND  =         0.0000  RESTRAINT  =         0.0000
 EKCMT  =         1.1515  VIRIAL  =         2.0199  VOLUME     =         0.8083
                                                    Density    =         0.0000
 DV/DL  =         0.4541
 ------------------------------------------------------------------------------

      A V E R A G E S   O V E R    1000 S T E P S

 NSTEP =     1000   TIME(PS) =     202.000  TEMP(K) =   240.86  PRESS =     1.6
 Etot   =        14.0177  EKtot   =         6.7010  EPtot      =         7.3167
 BOND   =         0.8559  ANGLE   =         3.8646  DIHED      =         0.9167
 1-4 NB =         0.1798  1-4 EEL =         3.2404  VDWAALS    =        -0.0500
 EELEC  =        -1.6907  EHBOND  =         0.0000  RESTRAINT  =         0.0000
 EKCMT  =         1.5949  VIRIAL  =        -6.4074  VOLUME     =    232085.0804
                                                    Density    =         0.0004
 DV/DL  =       -13.4701
 ------------------------------------------------------------------------------

      R M S  F L U C T U A T I O N S

 NSTEP =     1000   TIME(PS) =     202.000  TEMP(K) =    66.04  PRESS =     0.4
 Etot   =         2.3134  EKtot   =         1.8373  EPtot      =         1.6501
 BOND   =         0.7027  ANGLE   =         1.2641  DIHED      =         0.5553
 1-4 NB =         0.2324  1-4 EEL =         0.0842  VDWAALS    =         0.0071
 EELEC  =         0.0585  EHBOND  =         0.0000  RESTRAINT  =         0.0000
 EKCMT  =         1.1515  VIRIAL  =         2.0199  VOLUME     =         0.8083
                                                    Density    =         0.0000
 DV/DL  =         0.4541
 ------------------------------------------------------------------------------

      DV/DL, AVERAGES OVER    1000 STEPS

 NSTEP =     1000   TIME(PS) =     202.000  TEMP(K) =    66.04  PRESS =     0.0
 Etot   =         0.0000  EKtot   =         0.0000  EPtot      =       -13.4701
 BOND   =         0.0000  ANGLE   =         0.0000  DIHED      =         0.0000
 1-4 NB =         0.0000  1-4 EEL =       -28.1651  VDWAALS    =         0.0000
 EELEC  =        14.6950  EHBOND  =         0.0000  RESTRAINT  =         0.0000
 EKCMT  =         0.0000  VIRIAL  =         0.0000  VOLUME     =         0.0000
                                                    Density    =         0.0000
 DV/DL  =       -13.4701
 ------------------------------------------------------------------------------

      A V E R A G E S   O V E R    1000 S T E P S

 NSTEP =     2000   TIME(PS) =     204.000  TEMP(K) =   280.50  PRESS =     1.4
 Etot   =        16.2523  EKtot   =         7.8037  EPtot      =         8.4486
 BOND   =         0.6739  ANGLE   =         4.8562  DIHED      =         1.2055
 1-4 NB =         0.2126  1-4 EEL =         3.2422  VDWAALS    =        -0.0510
 EELEC  =        -1.6907  EHBOND  =         0.0000  RESTRAINT  =         0.0000
 EKCMT  =         1.5592  VIRIAL  =        -5.6553  VOLUME     =    232086.9562
                                                    Density    =         0.0004
 DV/DL  =       -13.4859
 ------------------------------------------------------------------------------

      R M S  F L U C T U A T I O N S

 NSTEP =     2000   TIME(PS) =     204.000  TEMP(K) =    64.34  PRESS =     0.4
 Etot   =         1.8491  EKtot   =         1.7899  EPtot      =         1.7032
 BOND   =         0.4998  ANGLE   =         1.5793  DIHED      =         0.7031
 1-4 NB =         0.2405  1-4 EEL =         0.0780  VDWAALS    =         0.0081
 EELEC  =         0.0590  EHBOND  =         0.0000  RESTRAINT  =         0.0000
 EKCMT  =         1.3983  VIRIAL  =         1.9682  VOLUME     =         0.4425
                                                    Density    =         0.0000
 DV/DL  =         0.3963
 ------------------------------------------------------------------------------

      A V E R A G E S   O V E R    1000 S T E P S

 NSTEP =     2000   TIME(PS) =     204.000  TEMP(K) =   280.50  PRESS =     1.4
 Etot   =        16.2523  EKtot   =         7.8037  EPtot      =         8.4486
 BOND   =         0.6739  ANGLE   =         4.8562  DIHED      =         1.2055
 1-4 NB =         0.2126  1-4 EEL =         3.2422  VDWAALS    =        -0.0510
 EELEC  =        -1.6907  EHBOND  =         0.0000  RESTRAINT  =         0.0000
 EKCMT  =         1.5592  VIRIAL  =        -5.6553  VOLUME     =    232086.9562
                                                    Density    =         0.0004
 DV/DL  =       -13.4859
 ------------------------------------------------------------------------------

      R M S  F L U C T U A T I O N S

 NSTEP =     2000   TIME(PS) =     204.000  TEMP(K) =    64.34  PRESS =     0.4
 Etot   =         1.8491  EKtot   =         1.7899  EPtot      =         1.7032
 BOND   =         0.4998  ANGLE   =         1.5793  DIHED      =         0.7031
 1-4 NB =         0.2405  1-4 EEL =         0.0780  VDWAALS    =         0.0081
 EELEC  =         0.0590  EHBOND  =         0.0000  RESTRAINT  =         0.0000
 EKCMT  =         1.3983  VIRIAL  =         1.9682  VOLUME     =         0.4425
                                                    Density    =         0.0000
 DV/DL  =         0.3963
 ------------------------------------------------------------------------------

      DV/DL, AVERAGES OVER    1000 STEPS

 NSTEP =     2000   TIME(PS) =     204.000  TEMP(K) =    64.34  PRESS =     0.0
 Etot   =         0.0000  EKtot   =         0.0000  EPtot      =       -13.4859
 BOND   =         0.0000  ANGLE   =         0.0000  DIHED      =         0.0000
 1-4 NB =         0.0000  1-4 EEL =       -28.1812  VDWAALS    =         0.0000
 EELEC  =        14.6953  EHBOND  =         0.0000  RESTRAINT  =         0.0000
 EKCMT  =         0.0000  VIRIAL  =         0.0000  VOLUME     =         0.0000
                                                    Density    =         0.0000
 DV/DL  =       -13.4859
 ------------------------------------------------------------------------------

      A V E R A G E S   O V E R    1000 S T E P S

 NSTEP =   500000   TIME(PS) =    1200.000  TEMP(K) =   246.32  PRESS =     1.8
 Etot   =        14.6913  EKtot   =         6.8528  EPtot      =         7.8385
 BOND   =         0.7478  ANGLE   =         4.0660  DIHED      =         0.7791
 1-4 NB =         0.7345  1-4 EEL =         4.8363  VDWAALS    =        -0.0861
 EELEC  =        -3.2393  EHBOND  =         0.0000  RESTRAINT  =         0.0000
 EKCMT  =         1.7365  VIRIAL  =        -7.5479  VOLUME     =    234156.6969
                                                    Density    =         0.0004
 DV/DL  =       -13.8809
 ------------------------------------------------------------------------------

      R M S  F L U C T U A T I O N S

 NSTEP =   500000   TIME(PS) =    1200.000  TEMP(K) =    62.71  PRESS =     0.6
 Etot   =         2.3586  EKtot   =         1.7447  EPtot      =         1.5983
 BOND   =         0.5526  ANGLE   =         1.2997  DIHED      =         0.4508
 1-4 NB =         0.6452  1-4 EEL =         0.2089  VDWAALS    =         0.0143
 EELEC  =         0.2115  EHBOND  =         0.0000  RESTRAINT  =         0.0000
 EKCMT  =         1.2118  VIRIAL  =         2.4404  VOLUME     =         0.9696
                                                    Density    =         0.0000
 DV/DL  =         0.9270
 ------------------------------------------------------------------------------

      A V E R A G E S   O V E R    1000 S T E P S

 NSTEP =   500000   TIME(PS) =    1200.000  TEMP(K) =   246.32  PRESS =     1.8
 Etot   =        14.6913  EKtot   =         6.8528  EPtot      =         7.8385
 BOND   =         0.7478  ANGLE   =         4.0660  DIHED      =         0.7791
 1-4 NB =         0.7345  1-4 EEL =         4.8363  VDWAALS    =        -0.0861
 EELEC  =        -3.2393  EHBOND  =         0.0000  RESTRAINT  =         0.0000
 EKCMT  =         1.7365  VIRIAL  =        -7.5479  VOLUME     =    234156.6969
                                                    Density    =         0.0004
 DV/DL  =       -13.8809
 ------------------------------------------------------------------------------

      R M S  F L U C T U A T I O N S

 NSTEP =   500000   TIME(PS) =    1200.000  TEMP(K) =    62.71  PRESS =     0.6
 Etot   =         2.3586  EKtot   =         1.7447  EPtot      =         1.5983
 BOND   =         0.5526  ANGLE   =         1.2997  DIHED      =         0.4508
 1-4 NB =         0.6452  1-4 EEL =         0.2089  VDWAALS    =         0.0143
 EELEC  =         0.2115  EHBOND  =         0.0000  RESTRAINT  =         0.0000
 EKCMT  =         1.2118  VIRIAL  =         2.4404  VOLUME     =         0.9696
                                                    Density    =         0.0000
 DV/DL  =         0.9270
 ------------------------------------------------------------------------------

      DV/DL, AVERAGES OVER    1000 STEPS

 NSTEP =   500000   TIME(PS) =    1200.000  TEMP(K) =    62.71  PRESS =     0.0
 Etot   =         0.0000  EKtot   =         0.0000  EPtot      =       -13.8809
 BOND   =         0.0000  ANGLE   =         0.0000  DIHED      =         0.0000
 1-4 NB =         0.0000  1-4 EEL =       -42.0366  VDWAALS    =         0.0000
 EELEC  =        28.1557  EHBOND  =         0.0000  RESTRAINT  =         0.0000
 EKCMT  =         0.0000  VIRIAL  =         0.0000  VOLUME     =         0.0000
                                                    Density    =         0.0000
 DV/DL  =       -13.8809
 ------------------------------------------------------------------------------

      A V E R A G E S   O V E R  500000 S T E P S

 NSTEP =   500000   TIME(PS) =    1200.000  TEMP(K) =   296.59  PRESS =     2.0
 Etot   =        17.1823  EKtot   =         8.2513  EPtot      =         8.9311
 BOND   =         0.9237  ANGLE   =         4.8214  DIHED      =         1.1794
 1-4 NB =         0.5502  1-4 EEL =         4.0769  VDWAALS    =        -0.0772
 EELEC  =        -2.5432  EHBOND  =         0.0000  RESTRAINT  =         0.0000
 EKCMT  =         1.8368  VIRIAL  =        -8.2861  VOLUME     =    233107.9730
                                                    Density    =         0.0004
 DV/DL  =       -13.3305
 ------------------------------------------------------------------------------

      R M S  F L U C T U A T I O N S

 NSTEP =   500000   TIME(PS) =    1200.000  TEMP(K) =    78.99  PRESS =     0.8
 Etot   =         3.1498  EKtot   =         2.1976  EPtot      =         2.2601
 BOND   =         0.7541  ANGLE   =         1.6880  DIHED      =         0.8293
 1-4 NB =         0.7214  1-4 EEL =         0.7726  VDWAALS    =         0.0445
 EELEC  =         0.7834  EHBOND  =         0.0000  RESTRAINT  =         0.0000
 EKCMT  =         1.5219  VIRIAL  =         3.6473  VOLUME     =       612.4809
                                                    Density    =         0.0000
 DV/DL  =         0.8607
 ------------------------------------------------------------------------------

      A V E R A G E S   O V E R  500000 S T E P S

 NSTEP =   500000   TIME(PS) =    1200.000  TEMP(K) =   296.59  PRESS =     2.0
 Etot   =        17.1823  EKtot   =         8.2513  EPtot      =         8.9311
 BOND   =         0.9237  ANGLE   =         4.8214  DIHED      =         1.1794
 1-4 NB =         0.5502  1-4 EEL =         4.0769  VDWAALS    =        -0.0772
 EELEC  =        -2.5432  EHBOND  =         0.0000  RESTRAINT  =         0.0000
 EKCMT  =         1.8368  VIRIAL  =        -8.2861  VOLUME     =    233107.9730
                                                    Density    =         0.0004
 DV/DL  =       -13.3305
 ------------------------------------------------------------------------------

      R M S  F L U C T U A T I O N S

 NSTEP =   500000   TIME(PS) =    1200.000  TEMP(K) =    78.99  PRESS =     0.8
 Etot   =         3.1498  EKtot   =         2.1976  EPtot      =         2.2601
 BOND   =         0.7541  ANGLE   =         1.6880  DIHED      =         0.8293
 1-4 NB =         0.7214  1-4 EEL =         0.7726  VDWAALS    =         0.0445
 EELEC  =         0.7834  EHBOND  =         0.0000  RESTRAINT  =         0.0000
 EKCMT  =         1.5219  VIRIAL  =         3.6473  VOLUME     =       612.4809
                                                    Density    =         0.0000
 DV/DL  =         0.8607
 ------------------------------------------------------------------------------

      DV/DL, AVERAGES OVER  500000 STEPS

 NSTEP =   500000   TIME(PS) =    1200.000  TEMP(K) =    78.99  PRESS =     0.0
 Etot   =         0.0000  EKtot   =         0.0000  EPtot      =       -13.3305
 BOND   =         0.0000  ANGLE   =         0.0000  DIHED      =         0.0000
 1-4 NB =         0.0000  1-4 EEL =       -35.4355  VDWAALS    =         0.0000
 EELEC  =        22.1050  EHBOND  =         0.0000  RESTRAINT  =         0.0000
 EKCMT  =         0.0000  VIRIAL  =         0.0000  VOLUME     =         0.0000
                                                    Density    =         0.0000
 DV/DL  =       -13.3305
 ------------------------------------------------------------------------------
