-------------------------------------------------------
          Amber 18 PMEMD                              2018
          -------------------------------------------------------

  [-O]verwriting output

File Assignments:

 Here is the input file:

 &cntrl
   nstlim=500000, nscm=1000,
   ntx=5, irest=1, ntpr=1000,
   tempi=300.0, temp0=300.0, ntt=3, gamma_ln=2.0,
   ntp=1, pres0=1.01325, taup=5.0,
   ntb=2, igb=0, cut=10.0,
   dt=0.002, ig=-1,
   ntc=2, ntf=2,
   iwrap=0,
   ntwr=1000, ntwx=50000, ntave=1000,
   ioutfm=1, ntwv=-1,
   ifsc = 0, icfe=1,
   clambda=0.95206,
   timask1=':1',
   timask2=':2', crgmask = ':2',
/

Note: ig = -1. Setting random seed to   249749 based on wallclock time in
      microseconds.

--------------------------------------------------------------------------------
   1.  RESOURCE   USE:
--------------------------------------------------------------------------------

 getting box info from netcdf restart file
 NATOM  =      24 NTYPES =       6 NBONH =      16 MBONA  =       6
 NTHETH =      32 MTHETA =       4 NPHIH =      40 MPHIA  =       2
 NHPARM =       0 NPARM  =       0 NNB   =     102 NRES   =       2
 NBONA  =       6 NTHETA =       4 NPHIA =       2 NUMBND =       4
 NUMANG =       6 NPTRA  =       2 NATYP =       6 NPHB   =       1
 IFBOX  =       2 NMXRS  =      12 IFCAP =       0 NEXTRA =       0
 NCOPY  =       0

     BOX TYPE: TRUNCATED OCTAHEDRON

--------------------------------------------------------------------------------
   2.  CONTROL  DATA  FOR  THE  RUN
--------------------------------------------------------------------------------

default_name

General flags:
     imin    =       0, nmropt  =       0

Nature and format of input:
     ntx     =       5, irest   =       1, ntrx    =       1

Nature and format of output:
     ntxo    =       2, ntpr    =    1000, ntrx    =       1, ntwr    =    1000
     iwrap   =       0, ntwx    =   50000, ntwv    =      -1, ntwe    =       0
     ioutfm  =       1, ntwprt  =       0, idecomp =       0, rbornstat=      0

Potential function:
     ntf     =       2, ntb     =       2, igb     =       0, nsnb    =      25
     ipol    =       0, gbsa    =       0, iesp    =       0
     dielc   =   1.00000, cut     =  10.00000, intdiel =   1.00000

Frozen or restrained atoms:
     ibelly  =       0, ntr     =       0

Molecular dynamics:
     nstlim  =    500000, nscm    =      1000, nrespa  =         1
     t       =   0.00000, dt      =   0.00200, vlimit  =  -1.00000

Langevin dynamics temperature regulation:
     ig      =  249749
     temp0   = 300.00000, tempi   = 300.00000, gamma_ln=   2.00000

Pressure regulation:
     ntp     =       1
     pres0   =   1.01325, comp    =  44.60000, taup    =   5.00000

SHAKE:
     ntc     =       2, jfastw  =       0
     tol     =   0.00001

Free energy options:
     icfe    =       1, ifsc    =       0, klambda =       1
     clambda =  0.9521, scalpha =  0.5000, scbeta  = 12.0000
     sceeorder =       2
     dynlmb =  0.0000 logdvdl =       0

Ewald parameters:
     verbose =       0, ew_type =       0, nbflag  =       1, use_pme =       1
     vdwmeth =       1, eedmeth =       1, netfrc  =       1
     Box X =   67.054   Box Y =   67.054   Box Z =   67.054
     Alpha =  109.471   Beta  =  109.471   Gamma =  109.471
     NFFT1 =   64       NFFT2 =   64       NFFT3 =   64
     Cutoff=   10.000   Tol   =0.100E-04
     Ewald Coefficient =  0.27511
     Interpolation order =    4
     TI Mask 1 :1; matches     12 atoms
     TI Mask 2 :2; matches     12 atoms
     TI region 1:      12 atoms
     TI region 2:      12 atoms
Removing charge of      -0.6664 from atom      13
Removing charge of      -0.6664 from atom      14
Removing charge of      -0.0664 from atom      15
Removing charge of      -0.0664 from atom      16
Removing charge of       0.2792 from atom      17
Removing charge of       0.2802 from atom      18
Removing charge of       0.2802 from atom      19
Removing charge of       0.2792 from atom      20
Removing charge of       0.0898 from atom      21
Removing charge of       0.0837 from atom      22
Removing charge of       0.0898 from atom      23
Removing charge of       0.0837 from atom      24
Total charge of  -0.00000000 removed from      12 atoms
     Checking for mismatched coordinates.

--------------------------------------------------------------------------------
   3.  ATOMIC COORDINATES AND VELOCITIES
--------------------------------------------------------------------------------

default_name
 begin time read from input coords =   200.000 ps

 Number of triangulated 3-point waters found:        0

     Sum of charges for TI region  1 =  -0.00000000
     Forcing neutrality...

     Sum of charges for TI region  2 =   0.00000000
     Forcing neutrality...

--------------------------------------------------------------------------------
   4.  RESULTS
 NSTEP =     1000   TIME(PS) =     202.000  TEMP(K) =   301.64  PRESS =     1.4
 Etot   =        14.8123  EKtot   =         8.3919  EPtot      =         6.4205
 BOND   =         1.7377  ANGLE   =         2.8305  DIHED      =         1.0861
 1-4 NB =         0.2426  1-4 EEL =         1.8956  VDWAALS    =        -0.1234
 EELEC  =        -1.2486  EHBOND  =         0.0000  RESTRAINT  =         0.0000
 EKCMT  =         0.5334  VIRIAL  =        -6.3247  VOLUME     =    232089.7209
                                                    Density    =         0.0004
 DV/DL  =       -13.4957
 ------------------------------------------------------------------------------

      A V E R A G E S   O V E R    1000 S T E P S

 NSTEP =     1000   TIME(PS) =     202.000  TEMP(K) =   310.92  PRESS =     2.5
 Etot   =        16.8846  EKtot   =         8.6499  EPtot      =         8.2347
 BOND   =         1.0286  ANGLE   =         4.7205  DIHED      =         1.1275
 1-4 NB =         0.8352  1-4 EEL =         1.9677  VDWAALS    =        -0.1154
 EELEC  =        -1.3294  EHBOND  =         0.0000  RESTRAINT  =         0.0000
 EKCMT  =         2.5567  VIRIAL  =        -9.8910  VOLUME     =    232086.9077
                                                    Density    =         0.0004
 DV/DL  =       -13.3160
 ------------------------------------------------------------------------------

      R M S  F L U C T U A T I O N S

 NSTEP =     1000   TIME(PS) =     202.000  TEMP(K) =    78.81  PRESS =     0.9
 Etot   =         2.6889  EKtot   =         2.1927  EPtot      =         2.0752
 BOND   =         0.7737  ANGLE   =         1.5933  DIHED      =         0.7061
 1-4 NB =         0.7961  1-4 EEL =         0.1132  VDWAALS    =         0.0439
 EELEC  =         0.1171  EHBOND  =         0.0000  RESTRAINT  =         0.0000
 EKCMT  =         1.9482  VIRIAL  =         4.0473  VOLUME     =         1.9246
                                                    Density    =         0.0000
 DV/DL  =         0.4523
 ------------------------------------------------------------------------------

      A V E R A G E S   O V E R    1000 S T E P S

 NSTEP =     1000   TIME(PS) =     202.000  TEMP(K) =   310.92  PRESS =     2.5
 Etot   =        16.8846  EKtot   =         8.6499  EPtot      =         8.2347
 BOND   =         1.0286  ANGLE   =         4.7205  DIHED      =         1.1275
 1-4 NB =         0.8352  1-4 EEL =         1.9677  VDWAALS    =        -0.1154
 EELEC  =        -1.3294  EHBOND  =         0.0000  RESTRAINT  =         0.0000
 EKCMT  =         2.5567  VIRIAL  =        -9.8910  VOLUME     =    232086.9077
                                                    Density    =         0.0004
 DV/DL  =       -13.3160
 ------------------------------------------------------------------------------

      R M S  F L U C T U A T I O N S

 NSTEP =     1000   TIME(PS) =     202.000  TEMP(K) =    78.81  PRESS =     0.9
 Etot   =         2.6889  EKtot   =         2.1927  EPtot      =         2.0752
 BOND   =         0.7737  ANGLE   =         1.5933  DIHED      =         0.7061
 1-4 NB =         0.7961  1-4 EEL =         0.1132  VDWAALS    =         0.0439
 EELEC  =         0.1171  EHBOND  =         0.0000  RESTRAINT  =         0.0000
 EKCMT  =         1.9482  VIRIAL  =         4.0473  VOLUME     =         1.9246
                                                    Density    =         0.0000
 DV/DL  =         0.4523
 ------------------------------------------------------------------------------

      DV/DL, AVERAGES OVER    1000 STEPS

 NSTEP =     1000   TIME(PS) =     202.000  TEMP(K) =    78.81  PRESS =     0.0
 Etot   =         0.0000  EKtot   =         0.0000  EPtot      =       -13.3160
 BOND   =         0.0000  ANGLE   =         0.0000  DIHED      =         0.0000
 1-4 NB =         0.0000  1-4 EEL =       -41.0459  VDWAALS    =         0.0000
 EELEC  =        27.7298  EHBOND  =         0.0000  RESTRAINT  =         0.0000
 EKCMT  =         0.0000  VIRIAL  =         0.0000  VOLUME     =         0.0000
                                                    Density    =         0.0000
 DV/DL  =       -13.3160
 ------------------------------------------------------------------------------

      A V E R A G E S   O V E R    1000 S T E P S

 NSTEP =     2000   TIME(PS) =     204.000  TEMP(K) =   250.03  PRESS =     2.4
 Etot   =        14.3622  EKtot   =         6.9561  EPtot      =         7.4062
 BOND   =         0.7369  ANGLE   =         4.6827  DIHED      =         0.7612
 1-4 NB =         0.7123  1-4 EEL =         1.9588  VDWAALS    =        -0.1256
 EELEC  =        -1.3200  EHBOND  =         0.0000  RESTRAINT  =         0.0000
 EKCMT  =         1.2035  VIRIAL  =       -10.9035  VOLUME     =    232092.6341
                                                    Density    =         0.0004
 DV/DL  =       -13.3229
 ------------------------------------------------------------------------------

      R M S  F L U C T U A T I O N S

 NSTEP =     2000   TIME(PS) =     204.000  TEMP(K) =    52.74  PRESS =     0.7
 Etot   =         1.8235  EKtot   =         1.4672  EPtot      =         1.6133
 BOND   =         0.6246  ANGLE   =         1.3440  DIHED      =         0.5067
 1-4 NB =         0.5787  1-4 EEL =         0.1078  VDWAALS    =         0.0231
 EELEC  =         0.1103  EHBOND  =         0.0000  RESTRAINT  =         0.0000
 EKCMT  =         0.8219  VIRIAL  =         3.1441  VOLUME     =         1.7579
                                                    Density    =         0.0000
 DV/DL  =         0.3569
 ------------------------------------------------------------------------------

      A V E R A G E S   O V E R    1000 S T E P S

 NSTEP =     2000   TIME(PS) =     204.000  TEMP(K) =   250.03  PRESS =     2.4
 Etot   =        14.3622  EKtot   =         6.9561  EPtot      =         7.4062
 BOND   =         0.7369  ANGLE   =         4.6827  DIHED      =         0.7612
 1-4 NB =         0.7123  1-4 EEL =         1.9588  VDWAALS    =        -0.1256
 EELEC  =        -1.3200  EHBOND  =         0.0000  RESTRAINT  =         0.0000
 EKCMT  =         1.2035  VIRIAL  =       -10.9035  VOLUME     =    232092.6341
                                                    Density    =         0.0004
 DV/DL  =       -13.3229
 ------------------------------------------------------------------------------

      R M S  F L U C T U A T I O N S

 NSTEP =     2000   TIME(PS) =     204.000  TEMP(K) =    52.74  PRESS =     0.7
 Etot   =         1.8235  EKtot   =         1.4672  EPtot      =         1.6133
 BOND   =         0.6246  ANGLE   =         1.3440  DIHED      =         0.5067
 1-4 NB =         0.5787  1-4 EEL =         0.1078  VDWAALS    =         0.0231
 EELEC  =         0.1103  EHBOND  =         0.0000  RESTRAINT  =         0.0000
 EKCMT  =         0.8219  VIRIAL  =         3.1441  VOLUME     =         1.7579
                                                    Density    =         0.0000
 DV/DL  =         0.3569
 ------------------------------------------------------------------------------

      DV/DL, AVERAGES OVER    1000 STEPS

 NSTEP =     2000   TIME(PS) =     204.000  TEMP(K) =    52.74  PRESS =     0.0
 Etot   =         0.0000  EKtot   =         0.0000  EPtot      =       -13.3229
 BOND   =         0.0000  ANGLE   =         0.0000  DIHED      =         0.0000
 1-4 NB =         0.0000  1-4 EEL =       -40.8584  VDWAALS    =         0.0000
 EELEC  =        27.5354  EHBOND  =         0.0000  RESTRAINT  =         0.0000
 EKCMT  =         0.0000  VIRIAL  =         0.0000  VOLUME     =         0.0000
                                                    Density    =         0.0000
 DV/DL  =       -13.3229
 ------------------------------------------------------------------------------

      A V E R A G E S   O V E R    1000 S T E P S

 NSTEP =   500000   TIME(PS) =    1200.000  TEMP(K) =   260.97  PRESS =     2.6
 Etot   =        14.8410  EKtot   =         7.2603  EPtot      =         7.5807
 BOND   =         0.7189  ANGLE   =         4.1146  DIHED      =         1.2652
 1-4 NB =         0.9688  1-4 EEL =         1.9652  VDWAALS    =        -0.1219
 EELEC  =        -1.3300  EHBOND  =         0.0000  RESTRAINT  =         0.0000
 EKCMT  =         2.3121  VIRIAL  =       -11.0441  VOLUME     =    234691.2960
                                                    Density    =         0.0004
 DV/DL  =       -13.2491
 ------------------------------------------------------------------------------

      R M S  F L U C T U A T I O N S

 NSTEP =   500000   TIME(PS) =    1200.000  TEMP(K) =    60.22  PRESS =     1.1
 Etot   =         2.2346  EKtot   =         1.6752  EPtot      =         1.9114
 BOND   =         0.5526  ANGLE   =         1.2903  DIHED      =         0.7007
 1-4 NB =         1.0353  1-4 EEL =         0.1679  VDWAALS    =         0.0278
 EELEC  =         0.1765  EHBOND  =         0.0000  RESTRAINT  =         0.0000
 EKCMT  =         1.5253  VIRIAL  =         5.1695  VOLUME     =         2.1289
                                                    Density    =         0.0000
 DV/DL  =         0.4854
 ------------------------------------------------------------------------------

      A V E R A G E S   O V E R    1000 S T E P S

 NSTEP =   500000   TIME(PS) =    1200.000  TEMP(K) =   260.97  PRESS =     2.6
 Etot   =        14.8410  EKtot   =         7.2603  EPtot      =         7.5807
 BOND   =         0.7189  ANGLE   =         4.1146  DIHED      =         1.2652
 1-4 NB =         0.9688  1-4 EEL =         1.9652  VDWAALS    =        -0.1219
 EELEC  =        -1.3300  EHBOND  =         0.0000  RESTRAINT  =         0.0000
 EKCMT  =         2.3121  VIRIAL  =       -11.0441  VOLUME     =    234691.2960
                                                    Density    =         0.0004
 DV/DL  =       -13.2491
 ------------------------------------------------------------------------------

      R M S  F L U C T U A T I O N S

 NSTEP =   500000   TIME(PS) =    1200.000  TEMP(K) =    60.22  PRESS =     1.1
 Etot   =         2.2346  EKtot   =         1.6752  EPtot      =         1.9114
 BOND   =         0.5526  ANGLE   =         1.2903  DIHED      =         0.7007
 1-4 NB =         1.0353  1-4 EEL =         0.1679  VDWAALS    =         0.0278
 EELEC  =         0.1765  EHBOND  =         0.0000  RESTRAINT  =         0.0000
 EKCMT  =         1.5253  VIRIAL  =         5.1695  VOLUME     =         2.1289
                                                    Density    =         0.0000
 DV/DL  =         0.4854
 ------------------------------------------------------------------------------

      DV/DL, AVERAGES OVER    1000 STEPS

 NSTEP =   500000   TIME(PS) =    1200.000  TEMP(K) =    60.22  PRESS =     0.0
 Etot   =         0.0000  EKtot   =         0.0000  EPtot      =       -13.2491
 BOND   =         0.0000  ANGLE   =         0.0000  DIHED      =         0.0000
 1-4 NB =         0.0000  1-4 EEL =       -40.9922  VDWAALS    =         0.0000
 EELEC  =        27.7431  EHBOND  =         0.0000  RESTRAINT  =         0.0000
 EKCMT  =         0.0000  VIRIAL  =         0.0000  VOLUME     =         0.0000
                                                    Density    =         0.0000
 DV/DL  =       -13.2491
 ------------------------------------------------------------------------------

      A V E R A G E S   O V E R  500000 S T E P S

 NSTEP =   500000   TIME(PS) =    1200.000  TEMP(K) =   300.05  PRESS =     2.3
 Etot   =        16.6438  EKtot   =         8.3476  EPtot      =         8.2961
 BOND   =         0.9325  ANGLE   =         4.9215  DIHED      =         1.2098
 1-4 NB =         0.6781  1-4 EEL =         1.7697  VDWAALS    =        -0.0858
 EELEC  =        -1.1295  EHBOND  =         0.0000  RESTRAINT  =         0.0000
 EKCMT  =         1.8139  VIRIAL  =        -9.6119  VOLUME     =    233336.1334
                                                    Density    =         0.0004
 DV/DL  =       -13.3538
 ------------------------------------------------------------------------------

      R M S  F L U C T U A T I O N S

 NSTEP =   500000   TIME(PS) =    1200.000  TEMP(K) =    79.42  PRESS =     1.0
 Etot   =         3.2369  EKtot   =         2.2094  EPtot      =         2.3906
 BOND   =         0.7620  ANGLE   =         1.7212  DIHED      =         0.8572
 1-4 NB =         0.9161  1-4 EEL =         0.3165  VDWAALS    =         0.0607
 EELEC  =         0.3200  EHBOND  =         0.0000  RESTRAINT  =         0.0000
 EKCMT  =         1.5066  VIRIAL  =         4.8999  VOLUME     =       753.1005
                                                    Density    =         0.0000
 DV/DL  =         1.0376
 ------------------------------------------------------------------------------

      A V E R A G E S   O V E R  500000 S T E P S

 NSTEP =   500000   TIME(PS) =    1200.000  TEMP(K) =   300.05  PRESS =     2.3
 Etot   =        16.6438  EKtot   =         8.3476  EPtot      =         8.2961
 BOND   =         0.9325  ANGLE   =         4.9215  DIHED      =         1.2098
 1-4 NB =         0.6781  1-4 EEL =         1.7697  VDWAALS    =        -0.0858
 EELEC  =        -1.1295  EHBOND  =         0.0000  RESTRAINT  =         0.0000
 EKCMT  =         1.8139  VIRIAL  =        -9.6119  VOLUME     =    233336.1334
                                                    Density    =         0.0004
 DV/DL  =       -13.3538
 ------------------------------------------------------------------------------

      R M S  F L U C T U A T I O N S

 NSTEP =   500000   TIME(PS) =    1200.000  TEMP(K) =    79.42  PRESS =     1.0
 Etot   =         3.2369  EKtot   =         2.2094  EPtot      =         2.3906
 BOND   =         0.7620  ANGLE   =         1.7212  DIHED      =         0.8572
 1-4 NB =         0.9161  1-4 EEL =         0.3165  VDWAALS    =         0.0607
 EELEC  =         0.3200  EHBOND  =         0.0000  RESTRAINT  =         0.0000
 EKCMT  =         1.5066  VIRIAL  =         4.8999  VOLUME     =       753.1005
                                                    Density    =         0.0000
 DV/DL  =         1.0376
 ------------------------------------------------------------------------------

      DV/DL, AVERAGES OVER  500000 STEPS

 NSTEP =   500000   TIME(PS) =    1200.000  TEMP(K) =    79.42  PRESS =     0.0
 Etot   =         0.0000  EKtot   =         0.0000  EPtot      =       -13.3538
 BOND   =         0.0000  ANGLE   =         0.0000  DIHED      =         0.0000
 1-4 NB =         0.0000  1-4 EEL =       -36.9153  VDWAALS    =         0.0000
 EELEC  =        23.5615  EHBOND  =         0.0000  RESTRAINT  =         0.0000
 EKCMT  =         0.0000  VIRIAL  =         0.0000  VOLUME     =         0.0000
                                                    Density    =         0.0000
 DV/DL  =       -13.3538
 ------------------------------------------------------------------------------
