-------------------------------------------------------
          Amber 18 PMEMD                              2018
          -------------------------------------------------------

  [-O]verwriting output

File Assignments:

 Here is the input file:

 &cntrl
   nstlim=500000, nscm=1000,
   ntx=5, irest=1, ntpr=1000,
   tempi=300.0, temp0=300.0, ntt=3, gamma_ln=2.0,
   ntp=1, pres0=1.01325, taup=5.0,
   ntb=2, igb=0, cut=10.0,
   dt=0.002, ig=-1,
   ntc=2, ntf=2,
   iwrap=0,
   ntwr=1000, ntwx=50000, ntave=1000,
   ioutfm=1, ntwv=-1,
   ifsc = 0, icfe=1,
   clambda=0.95206,
   timask1=':1',
   timask2=':2', crgmask = ':2',
/

Note: ig = -1. Setting random seed to   419113 based on wallclock time in
      microseconds.

--------------------------------------------------------------------------------
   1.  RESOURCE   USE:
--------------------------------------------------------------------------------

 getting box info from netcdf restart file
 NATOM  =   20967 NTYPES =       6 NBONH =   20959 MBONA  =       6
 NTHETH =      32 MTHETA =       4 NPHIH =      40 MPHIA  =       2
 NHPARM =       0 NPARM  =       0 NNB   =   28026 NRES   =    6983
 NBONA  =       6 NTHETA =       4 NPHIA =       2 NUMBND =       6
 NUMANG =       6 NPTRA  =       2 NATYP =       6 NPHB   =       1
 IFBOX  =       2 NMXRS  =      12 IFCAP =       0 NEXTRA =       0
 NCOPY  =       0

     BOX TYPE: TRUNCATED OCTAHEDRON

--------------------------------------------------------------------------------
   2.  CONTROL  DATA  FOR  THE  RUN
--------------------------------------------------------------------------------

default_name

General flags:
     imin    =       0, nmropt  =       0

Nature and format of input:
     ntx     =       5, irest   =       1, ntrx    =       1

Nature and format of output:
     ntxo    =       2, ntpr    =    1000, ntrx    =       1, ntwr    =    1000
     iwrap   =       0, ntwx    =   50000, ntwv    =      -1, ntwe    =       0
     ioutfm  =       1, ntwprt  =       0, idecomp =       0, rbornstat=      0

Potential function:
     ntf     =       2, ntb     =       2, igb     =       0, nsnb    =      25
     ipol    =       0, gbsa    =       0, iesp    =       0
     dielc   =   1.00000, cut     =  10.00000, intdiel =   1.00000

Frozen or restrained atoms:
     ibelly  =       0, ntr     =       0

Molecular dynamics:
     nstlim  =    500000, nscm    =      1000, nrespa  =         1
     t       =   0.00000, dt      =   0.00200, vlimit  =  -1.00000

Langevin dynamics temperature regulation:
     ig      =  419113
     temp0   = 300.00000, tempi   = 300.00000, gamma_ln=   2.00000

Pressure regulation:
     ntp     =       1
     pres0   =   1.01325, comp    =  44.60000, taup    =   5.00000

SHAKE:
     ntc     =       2, jfastw  =       0
     tol     =   0.00001

Free energy options:
     icfe    =       1, ifsc    =       0, klambda =       1
     clambda =  0.9521, scalpha =  0.5000, scbeta  = 12.0000
     sceeorder =       2
     dynlmb =  0.0000 logdvdl =       0

Ewald parameters:
     verbose =       0, ew_type =       0, nbflag  =       1, use_pme =       1
     vdwmeth =       1, eedmeth =       1, netfrc  =       1
     Box X =   67.054   Box Y =   67.054   Box Z =   67.054
     Alpha =  109.471   Beta  =  109.471   Gamma =  109.471
     NFFT1 =   64       NFFT2 =   64       NFFT3 =   64
     Cutoff=   10.000   Tol   =0.100E-04
     Ewald Coefficient =  0.27511
     Interpolation order =    4
     TI Mask 1 :1; matches     12 atoms
     TI Mask 2 :2; matches     12 atoms
     TI region 1:   20955 atoms
     TI region 2:   20955 atoms
Removing charge of      -0.6664 from atom      13
Removing charge of      -0.6664 from atom      14
Removing charge of      -0.0664 from atom      15
Removing charge of      -0.0664 from atom      16
Removing charge of       0.2792 from atom      17
Removing charge of       0.2802 from atom      18
Removing charge of       0.2802 from atom      19
Removing charge of       0.2792 from atom      20
Removing charge of       0.0898 from atom      21
Removing charge of       0.0837 from atom      22
Removing charge of       0.0898 from atom      23
Removing charge of       0.0837 from atom      24
Total charge of  -0.00000000 removed from      12 atoms
     Checking for mismatched coordinates.

--------------------------------------------------------------------------------
   3.  ATOMIC COORDINATES AND VELOCITIES
--------------------------------------------------------------------------------

default_name
 begin time read from input coords =   200.000 ps

 Number of triangulated 3-point waters found:     6981

     Sum of charges for TI region  1 =  -0.00000000
     Forcing neutrality...

     Sum of charges for TI region  2 =   0.00000000
     Forcing neutrality...

--------------------------------------------------------------------------------
   4.  RESULTS
 NSTEP =     1000   TIME(PS) =     202.000  TEMP(K) =   301.27  PRESS =  -674.2
 Etot   =    -52992.3542  EKtot   =     12546.3747  EPtot      =    -65538.7288
 BOND   =         0.3703  ANGLE   =         5.5997  DIHED      =         0.1846
 1-4 NB =         0.6260  1-4 EEL =         1.9324  VDWAALS    =      9688.1458
 EELEC  =    -75235.5876  EHBOND  =         0.0000  RESTRAINT  =         0.0000
 EKCMT  =      6245.9529  VIRIAL  =      9575.7304  VOLUME     =    228755.2389
                                                    Density    =         0.9134
 DV/DL  =       -10.6324
 ------------------------------------------------------------------------------

      A V E R A G E S   O V E R    1000 S T E P S

 NSTEP =     1000   TIME(PS) =     202.000  TEMP(K) =   301.50  PRESS =  -809.4
 Etot   =    -52872.8955  EKtot   =     12556.0855  EPtot      =    -65428.9811
 BOND   =         0.8985  ANGLE   =         5.0196  DIHED      =         1.5894
 1-4 NB =         0.8330  1-4 EEL =         1.9516  VDWAALS    =      9590.1744
 EELEC  =    -75029.4476  EHBOND  =         0.0000  RESTRAINT  =         0.0000
 EKCMT  =      6302.1454  VIRIAL  =     10328.7020  VOLUME     =    230360.5126
                                                    Density    =         0.9071
 DV/DL  =       -13.3657
 ------------------------------------------------------------------------------

      R M S  F L U C T U A T I O N S

 NSTEP =     1000   TIME(PS) =     202.000  TEMP(K) =     1.67  PRESS =   103.3
 Etot   =       102.4398  EKtot   =        69.7493  EPtot      =       123.0723
 BOND   =         0.7266  ANGLE   =         1.4614  DIHED      =         1.1253
 1-4 NB =         0.8223  1-4 EEL =         0.1392  VDWAALS    =        98.9957
 EELEC  =       180.2615  EHBOND  =         0.0000  RESTRAINT  =         0.0000
 EKCMT  =        56.0984  VIRIAL  =       526.4042  VOLUME     =       969.5569
                                                    Density    =         0.0038
 DV/DL  =         1.9412
 ------------------------------------------------------------------------------

      A V E R A G E S   O V E R    1000 S T E P S

 NSTEP =     1000   TIME(PS) =     202.000  TEMP(K) =   301.50  PRESS =  -809.4
 Etot   =    -52872.8955  EKtot   =     12556.0855  EPtot      =    -65428.9811
 BOND   =         0.8985  ANGLE   =         5.0196  DIHED      =         1.5894
 1-4 NB =         0.8330  1-4 EEL =         1.9516  VDWAALS    =      9590.1744
 EELEC  =    -75029.4476  EHBOND  =         0.0000  RESTRAINT  =         0.0000
 EKCMT  =      6302.1454  VIRIAL  =     10328.7020  VOLUME     =    230360.5126
                                                    Density    =         0.9071
 DV/DL  =       -13.3657
 ------------------------------------------------------------------------------

      R M S  F L U C T U A T I O N S

 NSTEP =     1000   TIME(PS) =     202.000  TEMP(K) =     1.67  PRESS =   103.3
 Etot   =       102.4398  EKtot   =        69.7493  EPtot      =       123.0723
 BOND   =         0.7266  ANGLE   =         1.4614  DIHED      =         1.1253
 1-4 NB =         0.8223  1-4 EEL =         0.1392  VDWAALS    =        98.9957
 EELEC  =       180.2615  EHBOND  =         0.0000  RESTRAINT  =         0.0000
 EKCMT  =        56.0984  VIRIAL  =       526.4042  VOLUME     =       969.5569
                                                    Density    =         0.0038
 DV/DL  =         1.9412
 ------------------------------------------------------------------------------

      DV/DL, AVERAGES OVER    1000 STEPS

 NSTEP =     1000   TIME(PS) =     202.000  TEMP(K) =     1.67  PRESS =     0.0
 Etot   =         0.0000  EKtot   =         0.0000  EPtot      =       -13.3657
 BOND   =         0.0000  ANGLE   =         0.0000  DIHED      =         0.0000
 1-4 NB =         0.0000  1-4 EEL =       -40.7086  VDWAALS    =         0.0000
 EELEC  =        27.3429  EHBOND  =         0.0000  RESTRAINT  =         0.0000
 EKCMT  =         0.0000  VIRIAL  =         0.0000  VOLUME     =         0.0000
                                                    Density    =         0.0000
 DV/DL  =       -13.3657
 ------------------------------------------------------------------------------

      A V E R A G E S   O V E R    1000 S T E P S

 NSTEP =     2000   TIME(PS) =     204.000  TEMP(K) =   301.53  PRESS =  -675.9
 Etot   =    -52997.3847  EKtot   =     12557.5957  EPtot      =    -65554.9804
 BOND   =         0.6286  ANGLE   =         3.6997  DIHED      =         1.3690
 1-4 NB =         0.9301  1-4 EEL =         2.0307  VDWAALS    =      9616.6425
 EELEC  =    -75180.2810  EHBOND  =         0.0000  RESTRAINT  =         0.0000
 EKCMT  =      6300.7674  VIRIAL  =      9618.8988  VOLUME     =    227354.1448
                                                    Density    =         0.9191
 DV/DL  =       -15.0627
 ------------------------------------------------------------------------------

      R M S  F L U C T U A T I O N S

 NSTEP =     2000   TIME(PS) =     204.000  TEMP(K) =     1.79  PRESS =    93.1
 Etot   =        61.9553  EKtot   =        74.6167  EPtot      =        73.6710
 BOND   =         0.4996  ANGLE   =         1.2132  DIHED      =         0.7556
 1-4 NB =         0.9478  1-4 EEL =         0.1297  VDWAALS    =        90.0138
 EELEC  =        97.6149  EHBOND  =         0.0000  RESTRAINT  =         0.0000
 EKCMT  =        58.6977  VIRIAL  =       489.3717  VOLUME     =       807.0183
                                                    Density    =         0.0033
 DV/DL  =         1.8749
 ------------------------------------------------------------------------------

      A V E R A G E S   O V E R    1000 S T E P S

 NSTEP =     2000   TIME(PS) =     204.000  TEMP(K) =   301.53  PRESS =  -675.9
 Etot   =    -52997.3847  EKtot   =     12557.5957  EPtot      =    -65554.9804
 BOND   =         0.6286  ANGLE   =         3.6997  DIHED      =         1.3690
 1-4 NB =         0.9301  1-4 EEL =         2.0307  VDWAALS    =      9616.6425
 EELEC  =    -75180.2810  EHBOND  =         0.0000  RESTRAINT  =         0.0000
 EKCMT  =      6300.7674  VIRIAL  =      9618.8988  VOLUME     =    227354.1448
                                                    Density    =         0.9191
 DV/DL  =       -15.0627
 ------------------------------------------------------------------------------

      R M S  F L U C T U A T I O N S

 NSTEP =     2000   TIME(PS) =     204.000  TEMP(K) =     1.79  PRESS =    93.1
 Etot   =        61.9553  EKtot   =        74.6167  EPtot      =        73.6710
 BOND   =         0.4996  ANGLE   =         1.2132  DIHED      =         0.7556
 1-4 NB =         0.9478  1-4 EEL =         0.1297  VDWAALS    =        90.0138
 EELEC  =        97.6149  EHBOND  =         0.0000  RESTRAINT  =         0.0000
 EKCMT  =        58.6977  VIRIAL  =       489.3717  VOLUME     =       807.0183
                                                    Density    =         0.0033
 DV/DL  =         1.8749
 ------------------------------------------------------------------------------

      DV/DL, AVERAGES OVER    1000 STEPS

 NSTEP =     2000   TIME(PS) =     204.000  TEMP(K) =     1.79  PRESS =     0.0
 Etot   =         0.0000  EKtot   =         0.0000  EPtot      =       -15.0627
 BOND   =         0.0000  ANGLE   =         0.0000  DIHED      =         0.0000
 1-4 NB =         0.0000  1-4 EEL =       -42.3598  VDWAALS    =         0.0000
 EELEC  =        27.2971  EHBOND  =         0.0000  RESTRAINT  =         0.0000
 EKCMT  =         0.0000  VIRIAL  =         0.0000  VOLUME     =         0.0000
                                                    Density    =         0.0000
 DV/DL  =       -15.0627
 ------------------------------------------------------------------------------

      A V E R A G E S   O V E R    1000 S T E P S

 NSTEP =   500000   TIME(PS) =    1200.000  TEMP(K) =   300.57  PRESS =    23.8
 Etot   =    -54082.2502  EKtot   =     12517.2283  EPtot      =    -66599.4785
 BOND   =         1.1184  ANGLE   =         5.2217  DIHED      =         0.7615
 1-4 NB =         0.6685  1-4 EEL =         1.9664  VDWAALS    =      9976.0848
 EELEC  =    -76585.2999  EHBOND  =         0.0000  RESTRAINT  =         0.0000
 EKCMT  =      6279.4950  VIRIAL  =      6170.3576  VOLUME     =    212461.0806
                                                    Density    =         0.9835
 DV/DL  =       -13.5183
 ------------------------------------------------------------------------------

      R M S  F L U C T U A T I O N S

 NSTEP =   500000   TIME(PS) =    1200.000  TEMP(K) =     2.14  PRESS =   113.1
 Etot   =       166.6338  EKtot   =        89.0697  EPtot      =       122.7050
 BOND   =         0.8299  ANGLE   =         1.4658  DIHED      =         0.4147
 1-4 NB =         0.5238  1-4 EEL =         0.0980  VDWAALS    =       105.9422
 EELEC  =       163.2779  EHBOND  =         0.0000  RESTRAINT  =         0.0000
 EKCMT  =        52.5766  VIRIAL  =       521.7514  VOLUME     =        29.2636
                                                    Density    =         0.0001
 DV/DL  =         1.9972
 ------------------------------------------------------------------------------

      A V E R A G E S   O V E R    1000 S T E P S

 NSTEP =   500000   TIME(PS) =    1200.000  TEMP(K) =   300.57  PRESS =    23.8
 Etot   =    -54082.2502  EKtot   =     12517.2283  EPtot      =    -66599.4785
 BOND   =         1.1184  ANGLE   =         5.2217  DIHED      =         0.7615
 1-4 NB =         0.6685  1-4 EEL =         1.9664  VDWAALS    =      9976.0848
 EELEC  =    -76585.2999  EHBOND  =         0.0000  RESTRAINT  =         0.0000
 EKCMT  =      6279.4950  VIRIAL  =      6170.3576  VOLUME     =    212461.0806
                                                    Density    =         0.9835
 DV/DL  =       -13.5183
 ------------------------------------------------------------------------------

      R M S  F L U C T U A T I O N S

 NSTEP =   500000   TIME(PS) =    1200.000  TEMP(K) =     2.14  PRESS =   113.1
 Etot   =       166.6338  EKtot   =        89.0697  EPtot      =       122.7050
 BOND   =         0.8299  ANGLE   =         1.4658  DIHED      =         0.4147
 1-4 NB =         0.5238  1-4 EEL =         0.0980  VDWAALS    =       105.9422
 EELEC  =       163.2779  EHBOND  =         0.0000  RESTRAINT  =         0.0000
 EKCMT  =        52.5766  VIRIAL  =       521.7514  VOLUME     =        29.2636
                                                    Density    =         0.0001
 DV/DL  =         1.9972
 ------------------------------------------------------------------------------

      DV/DL, AVERAGES OVER    1000 STEPS

 NSTEP =   500000   TIME(PS) =    1200.000  TEMP(K) =     2.14  PRESS =     0.0
 Etot   =         0.0000  EKtot   =         0.0000  EPtot      =       -13.5183
 BOND   =         0.0000  ANGLE   =         0.0000  DIHED      =         0.0000
 1-4 NB =         0.0000  1-4 EEL =       -41.0184  VDWAALS    =         0.0000
 EELEC  =        27.5001  EHBOND  =         0.0000  RESTRAINT  =         0.0000
 EKCMT  =         0.0000  VIRIAL  =         0.0000  VOLUME     =         0.0000
                                                    Density    =         0.0000
 DV/DL  =       -13.5183
 ------------------------------------------------------------------------------

      A V E R A G E S   O V E R  500000 S T E P S

 NSTEP =   500000   TIME(PS) =    1200.000  TEMP(K) =   300.13  PRESS =    -8.9
 Etot   =    -54063.6206  EKtot   =     12499.2507  EPtot      =    -66562.8712
 BOND   =         0.9332  ANGLE   =         4.9120  DIHED      =         1.1486
 1-4 NB =         0.6031  1-4 EEL =         1.7244  VDWAALS    =      9951.4639
 EELEC  =    -76523.6564  EHBOND  =         0.0000  RESTRAINT  =         0.0000
 EKCMT  =      6267.1505  VIRIAL  =      6309.8810  VOLUME     =    212865.2615
                                                    Density    =         0.9816
 DV/DL  =       -13.0850
 ------------------------------------------------------------------------------

      R M S  F L U C T U A T I O N S

 NSTEP =   500000   TIME(PS) =    1200.000  TEMP(K) =     2.07  PRESS =   145.8
 Etot   =       176.1228  EKtot   =        86.3301  EPtot      =       150.7416
 BOND   =         0.7625  ANGLE   =         1.7396  DIHED      =         0.8123
 1-4 NB =         0.8225  1-4 EEL =         0.3278  VDWAALS    =       129.1352
 EELEC  =       229.7160  EHBOND  =         0.0000  RESTRAINT  =         0.0000
 EKCMT  =        60.8821  VIRIAL  =       678.4809  VOLUME     =      1391.7643
                                                    Density    =         0.0061
 DV/DL  =         2.4420
 ------------------------------------------------------------------------------

      A V E R A G E S   O V E R  500000 S T E P S

 NSTEP =   500000   TIME(PS) =    1200.000  TEMP(K) =   300.13  PRESS =    -8.9
 Etot   =    -54063.6206  EKtot   =     12499.2507  EPtot      =    -66562.8712
 BOND   =         0.9332  ANGLE   =         4.9120  DIHED      =         1.1486
 1-4 NB =         0.6031  1-4 EEL =         1.7244  VDWAALS    =      9951.4639
 EELEC  =    -76523.6564  EHBOND  =         0.0000  RESTRAINT  =         0.0000
 EKCMT  =      6267.1505  VIRIAL  =      6309.8810  VOLUME     =    212865.2615
                                                    Density    =         0.9816
 DV/DL  =       -13.0850
 ------------------------------------------------------------------------------

      R M S  F L U C T U A T I O N S

 NSTEP =   500000   TIME(PS) =    1200.000  TEMP(K) =     2.07  PRESS =   145.8
 Etot   =       176.1228  EKtot   =        86.3301  EPtot      =       150.7416
 BOND   =         0.7625  ANGLE   =         1.7396  DIHED      =         0.8123
 1-4 NB =         0.8225  1-4 EEL =         0.3278  VDWAALS    =       129.1352
 EELEC  =       229.7160  EHBOND  =         0.0000  RESTRAINT  =         0.0000
 EKCMT  =        60.8821  VIRIAL  =       678.4809  VOLUME     =      1391.7643
                                                    Density    =         0.0061
 DV/DL  =         2.4420
 ------------------------------------------------------------------------------

      DV/DL, AVERAGES OVER  500000 STEPS

 NSTEP =   500000   TIME(PS) =    1200.000  TEMP(K) =     2.07  PRESS =     0.0
 Etot   =         0.0000  EKtot   =         0.0000  EPtot      =       -13.0850
 BOND   =         0.0000  ANGLE   =         0.0000  DIHED      =         0.0000
 1-4 NB =         0.0000  1-4 EEL =       -35.9703  VDWAALS    =         0.0000
 EELEC  =        22.8852  EHBOND  =         0.0000  RESTRAINT  =         0.0000
 EKCMT  =         0.0000  VIRIAL  =         0.0000  VOLUME     =         0.0000
                                                    Density    =         0.0000
 DV/DL  =       -13.0850
 ------------------------------------------------------------------------------
