-------------------------------------------------------
          Amber 18 PMEMD                              2018
          -------------------------------------------------------

  [-O]verwriting output

File Assignments:

 Here is the input file:

 &cntrl
   nstlim=500000, nscm=1000,
   ntx=5, irest=1, ntpr=1000,
   tempi=300.0, temp0=300.0, ntt=3, gamma_ln=2.0,
   ntp=1, pres0=1.01325, taup=5.0,
   ntb=2, igb=0, cut=10.0,
   dt=0.002, ig=-1,
   ntc=2, ntf=2,
   iwrap=0,
   ntwr=1000, ntwx=50000, ntave=1000,
   ioutfm=1, ntwv=-1,
   ifsc = 0, icfe=1,
   clambda=0.11505,
   timask1=':1',
   timask2=':2', crgmask = ':2',
/

Note: ig = -1. Setting random seed to   482385 based on wallclock time in
      microseconds.

--------------------------------------------------------------------------------
   1.  RESOURCE   USE:
--------------------------------------------------------------------------------

 getting box info from netcdf restart file
 NATOM  =   20967 NTYPES =       6 NBONH =   20959 MBONA  =       6
 NTHETH =      32 MTHETA =       4 NPHIH =      40 MPHIA  =       2
 NHPARM =       0 NPARM  =       0 NNB   =   28026 NRES   =    6983
 NBONA  =       6 NTHETA =       4 NPHIA =       2 NUMBND =       6
 NUMANG =       6 NPTRA  =       2 NATYP =       6 NPHB   =       1
 IFBOX  =       2 NMXRS  =      12 IFCAP =       0 NEXTRA =       0
 NCOPY  =       0

     BOX TYPE: TRUNCATED OCTAHEDRON

--------------------------------------------------------------------------------
   2.  CONTROL  DATA  FOR  THE  RUN
--------------------------------------------------------------------------------

default_name

General flags:
     imin    =       0, nmropt  =       0

Nature and format of input:
     ntx     =       5, irest   =       1, ntrx    =       1

Nature and format of output:
     ntxo    =       2, ntpr    =    1000, ntrx    =       1, ntwr    =    1000
     iwrap   =       0, ntwx    =   50000, ntwv    =      -1, ntwe    =       0
     ioutfm  =       1, ntwprt  =       0, idecomp =       0, rbornstat=      0

Potential function:
     ntf     =       2, ntb     =       2, igb     =       0, nsnb    =      25
     ipol    =       0, gbsa    =       0, iesp    =       0
     dielc   =   1.00000, cut     =  10.00000, intdiel =   1.00000

Frozen or restrained atoms:
     ibelly  =       0, ntr     =       0

Molecular dynamics:
     nstlim  =    500000, nscm    =      1000, nrespa  =         1
     t       =   0.00000, dt      =   0.00200, vlimit  =  -1.00000

Langevin dynamics temperature regulation:
     ig      =  482385
     temp0   = 300.00000, tempi   = 300.00000, gamma_ln=   2.00000

Pressure regulation:
     ntp     =       1
     pres0   =   1.01325, comp    =  44.60000, taup    =   5.00000

SHAKE:
     ntc     =       2, jfastw  =       0
     tol     =   0.00001

Free energy options:
     icfe    =       1, ifsc    =       0, klambda =       1
     clambda =  0.1150, scalpha =  0.5000, scbeta  = 12.0000
     sceeorder =       2
     dynlmb =  0.0000 logdvdl =       0

Ewald parameters:
     verbose =       0, ew_type =       0, nbflag  =       1, use_pme =       1
     vdwmeth =       1, eedmeth =       1, netfrc  =       1
     Box X =   67.054   Box Y =   67.054   Box Z =   67.054
     Alpha =  109.471   Beta  =  109.471   Gamma =  109.471
     NFFT1 =   64       NFFT2 =   64       NFFT3 =   64
     Cutoff=   10.000   Tol   =0.100E-04
     Ewald Coefficient =  0.27511
     Interpolation order =    4
     TI Mask 1 :1; matches     12 atoms
     TI Mask 2 :2; matches     12 atoms
     TI region 1:   20955 atoms
     TI region 2:   20955 atoms
Removing charge of      -0.6664 from atom      13
Removing charge of      -0.6664 from atom      14
Removing charge of      -0.0664 from atom      15
Removing charge of      -0.0664 from atom      16
Removing charge of       0.2792 from atom      17
Removing charge of       0.2802 from atom      18
Removing charge of       0.2802 from atom      19
Removing charge of       0.2792 from atom      20
Removing charge of       0.0898 from atom      21
Removing charge of       0.0837 from atom      22
Removing charge of       0.0898 from atom      23
Removing charge of       0.0837 from atom      24
Total charge of  -0.00000000 removed from      12 atoms
     Checking for mismatched coordinates.

--------------------------------------------------------------------------------
   3.  ATOMIC COORDINATES AND VELOCITIES
--------------------------------------------------------------------------------

default_name
 begin time read from input coords =   200.000 ps

 Number of triangulated 3-point waters found:     6981

     Sum of charges for TI region  1 =  -0.00000000
     Forcing neutrality...

     Sum of charges for TI region  2 =   0.00000000
     Forcing neutrality...

--------------------------------------------------------------------------------
   4.  RESULTS
 NSTEP =     1000   TIME(PS) =     202.000  TEMP(K) =   302.86  PRESS =  -937.5
 Etot   =    -52915.2929  EKtot   =     12612.9450  EPtot      =    -65528.2379
 BOND   =         2.2894  ANGLE   =         5.6513  DIHED      =         0.7664
 1-4 NB =        -0.1154  1-4 EEL =        32.8926  VDWAALS    =      9412.8442
 EELEC  =    -74982.5664  EHBOND  =         0.0000  RESTRAINT  =         0.0000
 EKCMT  =      6304.8993  VIRIAL  =     10932.2290  VOLUME     =    228612.6331
                                                    Density    =         0.9140
 DV/DL  =        -5.3469
 ------------------------------------------------------------------------------

      A V E R A G E S   O V E R    1000 S T E P S

 NSTEP =     1000   TIME(PS) =     202.000  TEMP(K) =   299.23  PRESS =  -844.6
 Etot   =    -53073.4600  EKtot   =     12461.4274  EPtot      =    -65534.8874
 BOND   =         0.9193  ANGLE   =         5.9496  DIHED      =         1.3353
 1-4 NB =         0.5328  1-4 EEL =        34.9066  VDWAALS    =      9595.7869
 EELEC  =    -75174.3179  EHBOND  =         0.0000  RESTRAINT  =         0.0000
 EKCMT  =      6259.3503  VIRIAL  =     10459.7977  VOLUME     =    230297.4186
                                                    Density    =         0.9073
 DV/DL  =         0.5200
 ------------------------------------------------------------------------------

      R M S  F L U C T U A T I O N S

 NSTEP =     1000   TIME(PS) =     202.000  TEMP(K) =     2.00  PRESS =   126.1
 Etot   =        83.7526  EKtot   =        83.4045  EPtot      =        89.8166
 BOND   =         0.6927  ANGLE   =         1.8917  DIHED      =         0.8655
 1-4 NB =         0.4750  1-4 EEL =         1.8858  VDWAALS    =       125.4815
 EELEC  =       182.1061  EHBOND  =         0.0000  RESTRAINT  =         0.0000
 EKCMT  =        57.1660  VIRIAL  =       632.7346  VOLUME     =       963.7830
                                                    Density    =         0.0038
 DV/DL  =         3.5335
 ------------------------------------------------------------------------------

      A V E R A G E S   O V E R    1000 S T E P S

 NSTEP =     1000   TIME(PS) =     202.000  TEMP(K) =   299.23  PRESS =  -844.6
 Etot   =    -53073.4600  EKtot   =     12461.4274  EPtot      =    -65534.8874
 BOND   =         0.9193  ANGLE   =         5.9496  DIHED      =         1.3353
 1-4 NB =         0.5328  1-4 EEL =        34.9066  VDWAALS    =      9595.7869
 EELEC  =    -75174.3179  EHBOND  =         0.0000  RESTRAINT  =         0.0000
 EKCMT  =      6259.3503  VIRIAL  =     10459.7977  VOLUME     =    230297.4186
                                                    Density    =         0.9073
 DV/DL  =         0.5200
 ------------------------------------------------------------------------------

      R M S  F L U C T U A T I O N S

 NSTEP =     1000   TIME(PS) =     202.000  TEMP(K) =     2.00  PRESS =   126.1
 Etot   =        83.7526  EKtot   =        83.4045  EPtot      =        89.8166
 BOND   =         0.6927  ANGLE   =         1.8917  DIHED      =         0.8655
 1-4 NB =         0.4750  1-4 EEL =         1.8858  VDWAALS    =       125.4815
 EELEC  =       182.1061  EHBOND  =         0.0000  RESTRAINT  =         0.0000
 EKCMT  =        57.1660  VIRIAL  =       632.7346  VOLUME     =       963.7830
                                                    Density    =         0.0038
 DV/DL  =         3.5335
 ------------------------------------------------------------------------------

      DV/DL, AVERAGES OVER    1000 STEPS

 NSTEP =     1000   TIME(PS) =     202.000  TEMP(K) =     2.00  PRESS =     0.0
 Etot   =         0.0000  EKtot   =         0.0000  EPtot      =         0.5200
 BOND   =         0.0000  ANGLE   =         0.0000  DIHED      =         0.0000
 1-4 NB =         0.0000  1-4 EEL =       -39.4447  VDWAALS    =         0.0000
 EELEC  =        39.9647  EHBOND  =         0.0000  RESTRAINT  =         0.0000
 EKCMT  =         0.0000  VIRIAL  =         0.0000  VOLUME     =         0.0000
                                                    Density    =         0.0000
 DV/DL  =         0.5200
 ------------------------------------------------------------------------------

      A V E R A G E S   O V E R    1000 S T E P S

 NSTEP =     2000   TIME(PS) =     204.000  TEMP(K) =   302.27  PRESS =  -731.9
 Etot   =    -52927.6441  EKtot   =     12588.2061  EPtot      =    -65515.8502
 BOND   =         0.8685  ANGLE   =         5.4262  DIHED      =         1.2505
 1-4 NB =         0.5033  1-4 EEL =        34.4754  VDWAALS    =      9560.6238
 EELEC  =    -75118.9979  EHBOND  =         0.0000  RESTRAINT  =         0.0000
 EKCMT  =      6297.4820  VIRIAL  =      9886.6392  VOLUME     =    227060.8451
                                                    Density    =         0.9202
 DV/DL  =        -0.1043
 ------------------------------------------------------------------------------

      R M S  F L U C T U A T I O N S

 NSTEP =     2000   TIME(PS) =     204.000  TEMP(K) =     2.01  PRESS =   130.2
 Etot   =       100.3091  EKtot   =        83.9104  EPtot      =       111.1636
 BOND   =         0.6532  ANGLE   =         1.8960  DIHED      =         0.7948
 1-4 NB =         0.4452  1-4 EEL =         2.3030  VDWAALS    =       132.4603
 EELEC  =       207.9758  EHBOND  =         0.0000  RESTRAINT  =         0.0000
 EKCMT  =        63.2473  VIRIAL  =       633.4740  VOLUME     =       856.4450
                                                    Density    =         0.0035
 DV/DL  =         2.7369
 ------------------------------------------------------------------------------

      A V E R A G E S   O V E R    1000 S T E P S

 NSTEP =     2000   TIME(PS) =     204.000  TEMP(K) =   302.27  PRESS =  -731.9
 Etot   =    -52927.6441  EKtot   =     12588.2061  EPtot      =    -65515.8502
 BOND   =         0.8685  ANGLE   =         5.4262  DIHED      =         1.2505
 1-4 NB =         0.5033  1-4 EEL =        34.4754  VDWAALS    =      9560.6238
 EELEC  =    -75118.9979  EHBOND  =         0.0000  RESTRAINT  =         0.0000
 EKCMT  =      6297.4820  VIRIAL  =      9886.6392  VOLUME     =    227060.8451
                                                    Density    =         0.9202
 DV/DL  =        -0.1043
 ------------------------------------------------------------------------------

      R M S  F L U C T U A T I O N S

 NSTEP =     2000   TIME(PS) =     204.000  TEMP(K) =     2.01  PRESS =   130.2
 Etot   =       100.3091  EKtot   =        83.9104  EPtot      =       111.1636
 BOND   =         0.6532  ANGLE   =         1.8960  DIHED      =         0.7948
 1-4 NB =         0.4452  1-4 EEL =         2.3030  VDWAALS    =       132.4603
 EELEC  =       207.9758  EHBOND  =         0.0000  RESTRAINT  =         0.0000
 EKCMT  =        63.2473  VIRIAL  =       633.4740  VOLUME     =       856.4450
                                                    Density    =         0.0035
 DV/DL  =         2.7369
 ------------------------------------------------------------------------------

      DV/DL, AVERAGES OVER    1000 STEPS

 NSTEP =     2000   TIME(PS) =     204.000  TEMP(K) =     2.01  PRESS =     0.0
 Etot   =         0.0000  EKtot   =         0.0000  EPtot      =        -0.1043
 BOND   =         0.0000  ANGLE   =         0.0000  DIHED      =         0.0000
 1-4 NB =         0.0000  1-4 EEL =       -38.9574  VDWAALS    =         0.0000
 EELEC  =        38.8531  EHBOND  =         0.0000  RESTRAINT  =         0.0000
 EKCMT  =         0.0000  VIRIAL  =         0.0000  VOLUME     =         0.0000
                                                    Density    =         0.0000
 DV/DL  =        -0.1043
 ------------------------------------------------------------------------------

      A V E R A G E S   O V E R    1000 S T E P S

 NSTEP =   500000   TIME(PS) =    1200.000  TEMP(K) =   298.39  PRESS =    41.8
 Etot   =    -54333.9237  EKtot   =     12426.7680  EPtot      =    -66760.6918
 BOND   =         1.2630  ANGLE   =         5.2527  DIHED      =         1.0554
 1-4 NB =         0.5330  1-4 EEL =        36.2660  VDWAALS    =     10079.3048
 EELEC  =    -76884.3667  EHBOND  =         0.0000  RESTRAINT  =         0.0000
 EKCMT  =      6246.6198  VIRIAL  =      6054.9578  VOLUME     =    212542.6193
                                                    Density    =         0.9831
 DV/DL  =        -2.3313
 ------------------------------------------------------------------------------

      R M S  F L U C T U A T I O N S

 NSTEP =   500000   TIME(PS) =    1200.000  TEMP(K) =     1.85  PRESS =   129.5
 Etot   =       108.6301  EKtot   =        76.8634  EPtot      =        98.3505
 BOND   =         0.9364  ANGLE   =         1.7250  DIHED      =         0.6453
 1-4 NB =         0.3381  1-4 EEL =         1.6283  VDWAALS    =       107.5432
 EELEC  =       148.0040  EHBOND  =         0.0000  RESTRAINT  =         0.0000
 EKCMT  =        60.9770  VIRIAL  =       579.0019  VOLUME     =        58.2975
                                                    Density    =         0.0003
 DV/DL  =         3.6188
 ------------------------------------------------------------------------------

      A V E R A G E S   O V E R    1000 S T E P S

 NSTEP =   500000   TIME(PS) =    1200.000  TEMP(K) =   298.39  PRESS =    41.8
 Etot   =    -54333.9237  EKtot   =     12426.7680  EPtot      =    -66760.6918
 BOND   =         1.2630  ANGLE   =         5.2527  DIHED      =         1.0554
 1-4 NB =         0.5330  1-4 EEL =        36.2660  VDWAALS    =     10079.3048
 EELEC  =    -76884.3667  EHBOND  =         0.0000  RESTRAINT  =         0.0000
 EKCMT  =      6246.6198  VIRIAL  =      6054.9578  VOLUME     =    212542.6193
                                                    Density    =         0.9831
 DV/DL  =        -2.3313
 ------------------------------------------------------------------------------

      R M S  F L U C T U A T I O N S

 NSTEP =   500000   TIME(PS) =    1200.000  TEMP(K) =     1.85  PRESS =   129.5
 Etot   =       108.6301  EKtot   =        76.8634  EPtot      =        98.3505
 BOND   =         0.9364  ANGLE   =         1.7250  DIHED      =         0.6453
 1-4 NB =         0.3381  1-4 EEL =         1.6283  VDWAALS    =       107.5432
 EELEC  =       148.0040  EHBOND  =         0.0000  RESTRAINT  =         0.0000
 EKCMT  =        60.9770  VIRIAL  =       579.0019  VOLUME     =        58.2975
                                                    Density    =         0.0003
 DV/DL  =         3.6188
 ------------------------------------------------------------------------------

      DV/DL, AVERAGES OVER    1000 STEPS

 NSTEP =   500000   TIME(PS) =    1200.000  TEMP(K) =     1.85  PRESS =     0.0
 Etot   =         0.0000  EKtot   =         0.0000  EPtot      =        -2.3313
 BOND   =         0.0000  ANGLE   =         0.0000  DIHED      =         0.0000
 1-4 NB =         0.0000  1-4 EEL =       -40.9809  VDWAALS    =         0.0000
 EELEC  =        38.6496  EHBOND  =         0.0000  RESTRAINT  =         0.0000
 EKCMT  =         0.0000  VIRIAL  =         0.0000  VOLUME     =         0.0000
                                                    Density    =         0.0000
 DV/DL  =        -2.3313
 ------------------------------------------------------------------------------

      A V E R A G E S   O V E R  500000 S T E P S

 NSTEP =   500000   TIME(PS) =    1200.000  TEMP(K) =   300.01  PRESS =    -8.8
 Etot   =    -54082.7315  EKtot   =     12494.1093  EPtot      =    -66576.8409
 BOND   =         0.9380  ANGLE   =         4.8891  DIHED      =         1.1344
 1-4 NB =         0.4234  1-4 EEL =        32.2305  VDWAALS    =      9957.2465
 EELEC  =    -76573.7029  EHBOND  =         0.0000  RESTRAINT  =         0.0000
 EKCMT  =      6263.9653  VIRIAL  =      6306.6186  VOLUME     =    212747.9566
                                                    Density    =         0.9822
 DV/DL  =        -1.5024
 ------------------------------------------------------------------------------

      R M S  F L U C T U A T I O N S

 NSTEP =   500000   TIME(PS) =    1200.000  TEMP(K) =     2.05  PRESS =   146.8
 Etot   =       173.4718  EKtot   =        85.2596  EPtot      =       150.5616
 BOND   =         0.7623  ANGLE   =         1.7120  DIHED      =         0.7971
 1-4 NB =         0.3963  1-4 EEL =         5.1611  VDWAALS    =       129.2256
 EELEC  =       230.2206  EHBOND  =         0.0000  RESTRAINT  =         0.0000
 EKCMT  =        60.7706  VIRIAL  =       682.9478  VOLUME     =      1345.0304
                                                    Density    =         0.0059
 DV/DL  =         3.6828
 ------------------------------------------------------------------------------

      A V E R A G E S   O V E R  500000 S T E P S

 NSTEP =   500000   TIME(PS) =    1200.000  TEMP(K) =   300.01  PRESS =    -8.8
 Etot   =    -54082.7315  EKtot   =     12494.1093  EPtot      =    -66576.8409
 BOND   =         0.9380  ANGLE   =         4.8891  DIHED      =         1.1344
 1-4 NB =         0.4234  1-4 EEL =        32.2305  VDWAALS    =      9957.2465
 EELEC  =    -76573.7029  EHBOND  =         0.0000  RESTRAINT  =         0.0000
 EKCMT  =      6263.9653  VIRIAL  =      6306.6186  VOLUME     =    212747.9566
                                                    Density    =         0.9822
 DV/DL  =        -1.5024
 ------------------------------------------------------------------------------

      R M S  F L U C T U A T I O N S

 NSTEP =   500000   TIME(PS) =    1200.000  TEMP(K) =     2.05  PRESS =   146.8
 Etot   =       173.4718  EKtot   =        85.2596  EPtot      =       150.5616
 BOND   =         0.7623  ANGLE   =         1.7120  DIHED      =         0.7971
 1-4 NB =         0.3963  1-4 EEL =         5.1611  VDWAALS    =       129.2256
 EELEC  =       230.2206  EHBOND  =         0.0000  RESTRAINT  =         0.0000
 EKCMT  =        60.7706  VIRIAL  =       682.9478  VOLUME     =      1345.0304
                                                    Density    =         0.0059
 DV/DL  =         3.6828
 ------------------------------------------------------------------------------

      DV/DL, AVERAGES OVER  500000 STEPS

 NSTEP =   500000   TIME(PS) =    1200.000  TEMP(K) =     2.05  PRESS =     0.0
 Etot   =         0.0000  EKtot   =         0.0000  EPtot      =        -1.5024
 BOND   =         0.0000  ANGLE   =         0.0000  DIHED      =         0.0000
 1-4 NB =         0.0000  1-4 EEL =       -36.4207  VDWAALS    =         0.0000
 EELEC  =        34.9183  EHBOND  =         0.0000  RESTRAINT  =         0.0000
 EKCMT  =         0.0000  VIRIAL  =         0.0000  VOLUME     =         0.0000
                                                    Density    =         0.0000
 DV/DL  =        -1.5024
 ------------------------------------------------------------------------------
