-------------------------------------------------------
          Amber 18 PMEMD                              2018
          -------------------------------------------------------

  [-O]verwriting output

File Assignments:

 Here is the input file:

 &cntrl
   nstlim=500000, nscm=1000,
   ntx=5, irest=1, ntpr=1000,
   tempi=300.0, temp0=300.0, ntt=3, gamma_ln=2.0,
   ntp=1, pres0=1.01325, taup=5.0,
   ntb=2, igb=0, cut=10.0,
   dt=0.002, ig=-1,
   ntc=2, ntf=2,
   iwrap=0,
   ntwr=1000, ntwx=50000, ntave=1000,
   ioutfm=1, ntwv=-1,
   ifsc = 0, icfe=1,
   clambda=0.68392,
   timask1=':1',
   timask2=':2', crgmask = ':2',
/

Note: ig = -1. Setting random seed to   746743 based on wallclock time in
      microseconds.

--------------------------------------------------------------------------------
   1.  RESOURCE   USE:
--------------------------------------------------------------------------------

 getting box info from netcdf restart file
 NATOM  =      24 NTYPES =       6 NBONH =      16 MBONA  =       6
 NTHETH =      32 MTHETA =       4 NPHIH =      40 MPHIA  =       2
 NHPARM =       0 NPARM  =       0 NNB   =     102 NRES   =       2
 NBONA  =       6 NTHETA =       4 NPHIA =       2 NUMBND =       4
 NUMANG =       6 NPTRA  =       2 NATYP =       6 NPHB   =       1
 IFBOX  =       2 NMXRS  =      12 IFCAP =       0 NEXTRA =       0
 NCOPY  =       0

     BOX TYPE: TRUNCATED OCTAHEDRON

--------------------------------------------------------------------------------
   2.  CONTROL  DATA  FOR  THE  RUN
--------------------------------------------------------------------------------

default_name

General flags:
     imin    =       0, nmropt  =       0

Nature and format of input:
     ntx     =       5, irest   =       1, ntrx    =       1

Nature and format of output:
     ntxo    =       2, ntpr    =    1000, ntrx    =       1, ntwr    =    1000
     iwrap   =       0, ntwx    =   50000, ntwv    =      -1, ntwe    =       0
     ioutfm  =       1, ntwprt  =       0, idecomp =       0, rbornstat=      0

Potential function:
     ntf     =       2, ntb     =       2, igb     =       0, nsnb    =      25
     ipol    =       0, gbsa    =       0, iesp    =       0
     dielc   =   1.00000, cut     =  10.00000, intdiel =   1.00000

Frozen or restrained atoms:
     ibelly  =       0, ntr     =       0

Molecular dynamics:
     nstlim  =    500000, nscm    =      1000, nrespa  =         1
     t       =   0.00000, dt      =   0.00200, vlimit  =  -1.00000

Langevin dynamics temperature regulation:
     ig      =  746743
     temp0   = 300.00000, tempi   = 300.00000, gamma_ln=   2.00000

Pressure regulation:
     ntp     =       1
     pres0   =   1.01325, comp    =  44.60000, taup    =   5.00000

SHAKE:
     ntc     =       2, jfastw  =       0
     tol     =   0.00001

Free energy options:
     icfe    =       1, ifsc    =       0, klambda =       1
     clambda =  0.6839, scalpha =  0.5000, scbeta  = 12.0000
     sceeorder =       2
     dynlmb =  0.0000 logdvdl =       0

Ewald parameters:
     verbose =       0, ew_type =       0, nbflag  =       1, use_pme =       1
     vdwmeth =       1, eedmeth =       1, netfrc  =       1
     Box X =   67.054   Box Y =   67.054   Box Z =   67.054
     Alpha =  109.471   Beta  =  109.471   Gamma =  109.471
     NFFT1 =   64       NFFT2 =   64       NFFT3 =   64
     Cutoff=   10.000   Tol   =0.100E-04
     Ewald Coefficient =  0.27511
     Interpolation order =    4
     TI Mask 1 :1; matches     12 atoms
     TI Mask 2 :2; matches     12 atoms
     TI region 1:      12 atoms
     TI region 2:      12 atoms
Removing charge of      -0.6664 from atom      13
Removing charge of      -0.6664 from atom      14
Removing charge of      -0.0664 from atom      15
Removing charge of      -0.0664 from atom      16
Removing charge of       0.2792 from atom      17
Removing charge of       0.2802 from atom      18
Removing charge of       0.2802 from atom      19
Removing charge of       0.2792 from atom      20
Removing charge of       0.0898 from atom      21
Removing charge of       0.0837 from atom      22
Removing charge of       0.0898 from atom      23
Removing charge of       0.0837 from atom      24
Total charge of  -0.00000000 removed from      12 atoms
     Checking for mismatched coordinates.

--------------------------------------------------------------------------------
   3.  ATOMIC COORDINATES AND VELOCITIES
--------------------------------------------------------------------------------

default_name
 begin time read from input coords =   200.000 ps

 Number of triangulated 3-point waters found:        0

     Sum of charges for TI region  1 =  -0.00000000
     Forcing neutrality...

     Sum of charges for TI region  2 =   0.00000000
     Forcing neutrality...

--------------------------------------------------------------------------------
   4.  RESULTS
 NSTEP =     1000   TIME(PS) =     202.000  TEMP(K) =   201.18  PRESS =     2.6
 Etot   =        18.1565  EKtot   =         5.5970  EPtot      =        12.5595
 BOND   =         0.0718  ANGLE   =         5.5561  DIHED      =         0.5933
 1-4 NB =         1.7661  1-4 EEL =        14.5327  VDWAALS    =        -0.1040
 EELEC  =        -9.8564  EHBOND  =         0.0000  RESTRAINT  =         0.0000
 EKCMT  =         2.3618  VIRIAL  =       -10.8405  VOLUME     =    232087.0117
                                                    Density    =         0.0004
 DV/DL  =       -14.7945
 ------------------------------------------------------------------------------

      A V E R A G E S   O V E R    1000 S T E P S

 NSTEP =     1000   TIME(PS) =     202.000  TEMP(K) =   320.73  PRESS =     1.8
 Etot   =        20.9368  EKtot   =         8.9229  EPtot      =        12.0139
 BOND   =         0.9652  ANGLE   =         5.2123  DIHED      =         1.0075
 1-4 NB =         0.6130  1-4 EEL =        12.9750  VDWAALS    =        -0.0827
 EELEC  =        -8.6765  EHBOND  =         0.0000  RESTRAINT  =         0.0000
 EKCMT  =         2.2027  VIRIAL  =        -6.9725  VOLUME     =    232085.3497
                                                    Density    =         0.0004
 DV/DL  =       -13.5995
 ------------------------------------------------------------------------------

      R M S  F L U C T U A T I O N S

 NSTEP =     1000   TIME(PS) =     202.000  TEMP(K) =    89.08  PRESS =     0.5
 Etot   =         4.1185  EKtot   =         2.4782  EPtot      =         2.7303
 BOND   =         0.8714  ANGLE   =         2.0548  DIHED      =         0.8036
 1-4 NB =         0.5555  1-4 EEL =         0.4499  VDWAALS    =         0.0148
 EELEC  =         0.5720  EHBOND  =         0.0000  RESTRAINT  =         0.0000
 EKCMT  =         1.1963  VIRIAL  =         2.2704  VOLUME     =         0.9608
                                                    Density    =         0.0000
 DV/DL  =         1.0271
 ------------------------------------------------------------------------------

      A V E R A G E S   O V E R    1000 S T E P S

 NSTEP =     1000   TIME(PS) =     202.000  TEMP(K) =   320.73  PRESS =     1.8
 Etot   =        20.9368  EKtot   =         8.9229  EPtot      =        12.0139
 BOND   =         0.9652  ANGLE   =         5.2123  DIHED      =         1.0075
 1-4 NB =         0.6130  1-4 EEL =        12.9750  VDWAALS    =        -0.0827
 EELEC  =        -8.6765  EHBOND  =         0.0000  RESTRAINT  =         0.0000
 EKCMT  =         2.2027  VIRIAL  =        -6.9725  VOLUME     =    232085.3497
                                                    Density    =         0.0004
 DV/DL  =       -13.5995
 ------------------------------------------------------------------------------

      R M S  F L U C T U A T I O N S

 NSTEP =     1000   TIME(PS) =     202.000  TEMP(K) =    89.08  PRESS =     0.5
 Etot   =         4.1185  EKtot   =         2.4782  EPtot      =         2.7303
 BOND   =         0.8714  ANGLE   =         2.0548  DIHED      =         0.8036
 1-4 NB =         0.5555  1-4 EEL =         0.4499  VDWAALS    =         0.0148
 EELEC  =         0.5720  EHBOND  =         0.0000  RESTRAINT  =         0.0000
 EKCMT  =         1.1963  VIRIAL  =         2.2704  VOLUME     =         0.9608
                                                    Density    =         0.0000
 DV/DL  =         1.0271
 ------------------------------------------------------------------------------

      DV/DL, AVERAGES OVER    1000 STEPS

 NSTEP =     1000   TIME(PS) =     202.000  TEMP(K) =    89.08  PRESS =     0.0
 Etot   =         0.0000  EKtot   =         0.0000  EPtot      =       -13.5995
 BOND   =         0.0000  ANGLE   =         0.0000  DIHED      =         0.0000
 1-4 NB =         0.0000  1-4 EEL =       -41.0497  VDWAALS    =         0.0000
 EELEC  =        27.4502  EHBOND  =         0.0000  RESTRAINT  =         0.0000
 EKCMT  =         0.0000  VIRIAL  =         0.0000  VOLUME     =         0.0000
                                                    Density    =         0.0000
 DV/DL  =       -13.5995
 ------------------------------------------------------------------------------

      A V E R A G E S   O V E R    1000 S T E P S

 NSTEP =     2000   TIME(PS) =     204.000  TEMP(K) =   381.17  PRESS =     1.9
 Etot   =        24.3536  EKtot   =        10.6045  EPtot      =        13.7490
 BOND   =         1.1051  ANGLE   =         6.2912  DIHED      =         1.4098
 1-4 NB =         0.6958  1-4 EEL =        12.9864  VDWAALS    =        -0.0769
 EELEC  =        -8.6624  EHBOND  =         0.0000  RESTRAINT  =         0.0000
 EKCMT  =         1.8832  VIRIAL  =        -7.8091  VOLUME     =    232089.0545
                                                    Density    =         0.0004
 DV/DL  =       -13.6800
 ------------------------------------------------------------------------------

      R M S  F L U C T U A T I O N S

 NSTEP =     2000   TIME(PS) =     204.000  TEMP(K) =    79.80  PRESS =     0.5
 Etot   =         2.2696  EKtot   =         2.2201  EPtot      =         2.0783
 BOND   =         0.9210  ANGLE   =         1.9375  DIHED      =         0.8441
 1-4 NB =         0.7153  1-4 EEL =         0.7258  VDWAALS    =         0.0362
 EELEC  =         0.8131  EHBOND  =         0.0000  RESTRAINT  =         0.0000
 EKCMT  =         1.1924  VIRIAL  =         2.3976  VOLUME     =         1.1103
                                                    Density    =         0.0000
 DV/DL  =         1.1394
 ------------------------------------------------------------------------------

      A V E R A G E S   O V E R    1000 S T E P S

 NSTEP =     2000   TIME(PS) =     204.000  TEMP(K) =   381.17  PRESS =     1.9
 Etot   =        24.3536  EKtot   =        10.6045  EPtot      =        13.7490
 BOND   =         1.1051  ANGLE   =         6.2912  DIHED      =         1.4098
 1-4 NB =         0.6958  1-4 EEL =        12.9864  VDWAALS    =        -0.0769
 EELEC  =        -8.6624  EHBOND  =         0.0000  RESTRAINT  =         0.0000
 EKCMT  =         1.8832  VIRIAL  =        -7.8091  VOLUME     =    232089.0545
                                                    Density    =         0.0004
 DV/DL  =       -13.6800
 ------------------------------------------------------------------------------

      R M S  F L U C T U A T I O N S

 NSTEP =     2000   TIME(PS) =     204.000  TEMP(K) =    79.80  PRESS =     0.5
 Etot   =         2.2696  EKtot   =         2.2201  EPtot      =         2.0783
 BOND   =         0.9210  ANGLE   =         1.9375  DIHED      =         0.8441
 1-4 NB =         0.7153  1-4 EEL =         0.7258  VDWAALS    =         0.0362
 EELEC  =         0.8131  EHBOND  =         0.0000  RESTRAINT  =         0.0000
 EKCMT  =         1.1924  VIRIAL  =         2.3976  VOLUME     =         1.1103
                                                    Density    =         0.0000
 DV/DL  =         1.1394
 ------------------------------------------------------------------------------

      DV/DL, AVERAGES OVER    1000 STEPS

 NSTEP =     2000   TIME(PS) =     204.000  TEMP(K) =    79.80  PRESS =     0.0
 Etot   =         0.0000  EKtot   =         0.0000  EPtot      =       -13.6800
 BOND   =         0.0000  ANGLE   =         0.0000  DIHED      =         0.0000
 1-4 NB =         0.0000  1-4 EEL =       -41.0858  VDWAALS    =         0.0000
 EELEC  =        27.4058  EHBOND  =         0.0000  RESTRAINT  =         0.0000
 EKCMT  =         0.0000  VIRIAL  =         0.0000  VOLUME     =         0.0000
                                                    Density    =         0.0000
 DV/DL  =       -13.6800
 ------------------------------------------------------------------------------

      A V E R A G E S   O V E R    1000 S T E P S

 NSTEP =   500000   TIME(PS) =    1200.000  TEMP(K) =   321.82  PRESS =     1.7
 Etot   =        21.6800  EKtot   =         8.9533  EPtot      =        12.7267
 BOND   =         0.9299  ANGLE   =         5.1197  DIHED      =         1.8586
 1-4 NB =         0.7434  1-4 EEL =        12.9205  VDWAALS    =        -0.1141
 EELEC  =        -8.7312  EHBOND  =         0.0000  RESTRAINT  =         0.0000
 EKCMT  =         1.4165  VIRIAL  =        -7.3673  VOLUME     =    233354.0980
                                                    Density    =         0.0004
 DV/DL  =       -13.2540
 ------------------------------------------------------------------------------

      R M S  F L U C T U A T I O N S

 NSTEP =   500000   TIME(PS) =    1200.000  TEMP(K) =    68.47  PRESS =     0.5
 Etot   =         2.0203  EKtot   =         1.9048  EPtot      =         2.1862
 BOND   =         0.8076  ANGLE   =         1.5788  DIHED      =         1.0535
 1-4 NB =         0.7553  1-4 EEL =         0.7482  VDWAALS    =         0.0558
 EELEC  =         0.7840  EHBOND  =         0.0000  RESTRAINT  =         0.0000
 EKCMT  =         0.8035  VIRIAL  =         2.4580  VOLUME     =         0.8860
                                                    Density    =         0.0000
 DV/DL  =         0.5377
 ------------------------------------------------------------------------------

      A V E R A G E S   O V E R    1000 S T E P S

 NSTEP =   500000   TIME(PS) =    1200.000  TEMP(K) =   321.82  PRESS =     1.7
 Etot   =        21.6800  EKtot   =         8.9533  EPtot      =        12.7267
 BOND   =         0.9299  ANGLE   =         5.1197  DIHED      =         1.8586
 1-4 NB =         0.7434  1-4 EEL =        12.9205  VDWAALS    =        -0.1141
 EELEC  =        -8.7312  EHBOND  =         0.0000  RESTRAINT  =         0.0000
 EKCMT  =         1.4165  VIRIAL  =        -7.3673  VOLUME     =    233354.0980
                                                    Density    =         0.0004
 DV/DL  =       -13.2540
 ------------------------------------------------------------------------------

      R M S  F L U C T U A T I O N S

 NSTEP =   500000   TIME(PS) =    1200.000  TEMP(K) =    68.47  PRESS =     0.5
 Etot   =         2.0203  EKtot   =         1.9048  EPtot      =         2.1862
 BOND   =         0.8076  ANGLE   =         1.5788  DIHED      =         1.0535
 1-4 NB =         0.7553  1-4 EEL =         0.7482  VDWAALS    =         0.0558
 EELEC  =         0.7840  EHBOND  =         0.0000  RESTRAINT  =         0.0000
 EKCMT  =         0.8035  VIRIAL  =         2.4580  VOLUME     =         0.8860
                                                    Density    =         0.0000
 DV/DL  =         0.5377
 ------------------------------------------------------------------------------

      DV/DL, AVERAGES OVER    1000 STEPS

 NSTEP =   500000   TIME(PS) =    1200.000  TEMP(K) =    68.47  PRESS =     0.0
 Etot   =         0.0000  EKtot   =         0.0000  EPtot      =       -13.2540
 BOND   =         0.0000  ANGLE   =         0.0000  DIHED      =         0.0000
 1-4 NB =         0.0000  1-4 EEL =       -40.8775  VDWAALS    =         0.0000
 EELEC  =        27.6235  EHBOND  =         0.0000  RESTRAINT  =         0.0000
 EKCMT  =         0.0000  VIRIAL  =         0.0000  VOLUME     =         0.0000
                                                    Density    =         0.0000
 DV/DL  =       -13.2540
 ------------------------------------------------------------------------------

      A V E R A G E S   O V E R  500000 S T E P S

 NSTEP =   500000   TIME(PS) =    1200.000  TEMP(K) =   301.10  PRESS =     1.6
 Etot   =        20.0203  EKtot   =         8.3768  EPtot      =        11.6435
 BOND   =         0.9329  ANGLE   =         4.9235  DIHED      =         1.1923
 1-4 NB =         0.5419  1-4 EEL =        11.5740  VDWAALS    =        -0.0867
 EELEC  =        -7.4344  EHBOND  =         0.0000  RESTRAINT  =         0.0000
 EKCMT  =         1.7581  VIRIAL  =        -6.4117  VOLUME     =    232708.6227
                                                    Density    =         0.0004
 DV/DL  =       -13.0966
 ------------------------------------------------------------------------------

      R M S  F L U C T U A T I O N S

 NSTEP =   500000   TIME(PS) =    1200.000  TEMP(K) =    81.37  PRESS =     0.6
 Etot   =         3.1838  EKtot   =         2.2638  EPtot      =         2.2403
 BOND   =         0.7637  ANGLE   =         1.7455  DIHED      =         0.8644
 1-4 NB =         0.5922  1-4 EEL =         1.9479  VDWAALS    =         0.0410
 EELEC  =         2.0289  EHBOND  =         0.0000  RESTRAINT  =         0.0000
 EKCMT  =         1.4429  VIRIAL  =         2.3531  VOLUME     =       382.2848
                                                    Density    =         0.0000
 DV/DL  =         0.7394
 ------------------------------------------------------------------------------

      A V E R A G E S   O V E R  500000 S T E P S

 NSTEP =   500000   TIME(PS) =    1200.000  TEMP(K) =   301.10  PRESS =     1.6
 Etot   =        20.0203  EKtot   =         8.3768  EPtot      =        11.6435
 BOND   =         0.9329  ANGLE   =         4.9235  DIHED      =         1.1923
 1-4 NB =         0.5419  1-4 EEL =        11.5740  VDWAALS    =        -0.0867
 EELEC  =        -7.4344  EHBOND  =         0.0000  RESTRAINT  =         0.0000
 EKCMT  =         1.7581  VIRIAL  =        -6.4117  VOLUME     =    232708.6227
                                                    Density    =         0.0004
 DV/DL  =       -13.0966
 ------------------------------------------------------------------------------

      R M S  F L U C T U A T I O N S

 NSTEP =   500000   TIME(PS) =    1200.000  TEMP(K) =    81.37  PRESS =     0.6
 Etot   =         3.1838  EKtot   =         2.2638  EPtot      =         2.2403
 BOND   =         0.7637  ANGLE   =         1.7455  DIHED      =         0.8644
 1-4 NB =         0.5922  1-4 EEL =         1.9479  VDWAALS    =         0.0410
 EELEC  =         2.0289  EHBOND  =         0.0000  RESTRAINT  =         0.0000
 EKCMT  =         1.4429  VIRIAL  =         2.3531  VOLUME     =       382.2848
                                                    Density    =         0.0000
 DV/DL  =         0.7394
 ------------------------------------------------------------------------------

      DV/DL, AVERAGES OVER  500000 STEPS

 NSTEP =   500000   TIME(PS) =    1200.000  TEMP(K) =    81.37  PRESS =     0.0
 Etot   =         0.0000  EKtot   =         0.0000  EPtot      =       -13.0966
 BOND   =         0.0000  ANGLE   =         0.0000  DIHED      =         0.0000
 1-4 NB =         0.0000  1-4 EEL =       -36.6172  VDWAALS    =         0.0000
 EELEC  =        23.5205  EHBOND  =         0.0000  RESTRAINT  =         0.0000
 EKCMT  =         0.0000  VIRIAL  =         0.0000  VOLUME     =         0.0000
                                                    Density    =         0.0000
 DV/DL  =       -13.0966
 ------------------------------------------------------------------------------
