-------------------------------------------------------
          Amber 18 PMEMD                              2018
          -------------------------------------------------------

  [-O]verwriting output

File Assignments:

 Here is the input file:

 &cntrl
   nstlim=500000, nscm=1000,
   ntx=5, irest=1, ntpr=1000,
   tempi=300.0, temp0=300.0, ntt=3, gamma_ln=2.0,
   ntp=1, pres0=1.01325, taup=5.0,
   ntb=2, igb=0, cut=10.0,
   dt=0.002, ig=-1,
   ntc=2, ntf=2,
   iwrap=0,
   ntwr=1000, ntwx=50000, ntave=1000,
   ioutfm=1, ntwv=-1,
   ifsc = 0, icfe=1,
   clambda=0.56262,
   timask1=':1',
   timask2=':2', crgmask = ':2',
/

Note: ig = -1. Setting random seed to   273816 based on wallclock time in
      microseconds.

--------------------------------------------------------------------------------
   1.  RESOURCE   USE:
--------------------------------------------------------------------------------

 getting box info from netcdf restart file
 NATOM  =      24 NTYPES =       6 NBONH =      16 MBONA  =       6
 NTHETH =      32 MTHETA =       4 NPHIH =      40 MPHIA  =       2
 NHPARM =       0 NPARM  =       0 NNB   =     102 NRES   =       2
 NBONA  =       6 NTHETA =       4 NPHIA =       2 NUMBND =       4
 NUMANG =       6 NPTRA  =       2 NATYP =       6 NPHB   =       1
 IFBOX  =       2 NMXRS  =      12 IFCAP =       0 NEXTRA =       0
 NCOPY  =       0

     BOX TYPE: TRUNCATED OCTAHEDRON

--------------------------------------------------------------------------------
   2.  CONTROL  DATA  FOR  THE  RUN
--------------------------------------------------------------------------------

default_name

General flags:
     imin    =       0, nmropt  =       0

Nature and format of input:
     ntx     =       5, irest   =       1, ntrx    =       1

Nature and format of output:
     ntxo    =       2, ntpr    =    1000, ntrx    =       1, ntwr    =    1000
     iwrap   =       0, ntwx    =   50000, ntwv    =      -1, ntwe    =       0
     ioutfm  =       1, ntwprt  =       0, idecomp =       0, rbornstat=      0

Potential function:
     ntf     =       2, ntb     =       2, igb     =       0, nsnb    =      25
     ipol    =       0, gbsa    =       0, iesp    =       0
     dielc   =   1.00000, cut     =  10.00000, intdiel =   1.00000

Frozen or restrained atoms:
     ibelly  =       0, ntr     =       0

Molecular dynamics:
     nstlim  =    500000, nscm    =      1000, nrespa  =         1
     t       =   0.00000, dt      =   0.00200, vlimit  =  -1.00000

Langevin dynamics temperature regulation:
     ig      =  273816
     temp0   = 300.00000, tempi   = 300.00000, gamma_ln=   2.00000

Pressure regulation:
     ntp     =       1
     pres0   =   1.01325, comp    =  44.60000, taup    =   5.00000

SHAKE:
     ntc     =       2, jfastw  =       0
     tol     =   0.00001

Free energy options:
     icfe    =       1, ifsc    =       0, klambda =       1
     clambda =  0.5626, scalpha =  0.5000, scbeta  = 12.0000
     sceeorder =       2
     dynlmb =  0.0000 logdvdl =       0

Ewald parameters:
     verbose =       0, ew_type =       0, nbflag  =       1, use_pme =       1
     vdwmeth =       1, eedmeth =       1, netfrc  =       1
     Box X =   67.054   Box Y =   67.054   Box Z =   67.054
     Alpha =  109.471   Beta  =  109.471   Gamma =  109.471
     NFFT1 =   64       NFFT2 =   64       NFFT3 =   64
     Cutoff=   10.000   Tol   =0.100E-04
     Ewald Coefficient =  0.27511
     Interpolation order =    4
     TI Mask 1 :1; matches     12 atoms
     TI Mask 2 :2; matches     12 atoms
     TI region 1:      12 atoms
     TI region 2:      12 atoms
Removing charge of      -0.6664 from atom      13
Removing charge of      -0.6664 from atom      14
Removing charge of      -0.0664 from atom      15
Removing charge of      -0.0664 from atom      16
Removing charge of       0.2792 from atom      17
Removing charge of       0.2802 from atom      18
Removing charge of       0.2802 from atom      19
Removing charge of       0.2792 from atom      20
Removing charge of       0.0898 from atom      21
Removing charge of       0.0837 from atom      22
Removing charge of       0.0898 from atom      23
Removing charge of       0.0837 from atom      24
Total charge of  -0.00000000 removed from      12 atoms
     Checking for mismatched coordinates.

--------------------------------------------------------------------------------
   3.  ATOMIC COORDINATES AND VELOCITIES
--------------------------------------------------------------------------------

default_name
 begin time read from input coords =   200.000 ps

 Number of triangulated 3-point waters found:        0

     Sum of charges for TI region  1 =  -0.00000000
     Forcing neutrality...

     Sum of charges for TI region  2 =   0.00000000
     Forcing neutrality...

--------------------------------------------------------------------------------
   4.  RESULTS
 NSTEP =     1000   TIME(PS) =     202.000  TEMP(K) =   226.98  PRESS =     1.3
 Etot   =        17.1778  EKtot   =         6.3147  EPtot      =        10.8631
 BOND   =         0.7236  ANGLE   =         2.9725  DIHED      =         1.3400
 1-4 NB =         0.4130  1-4 EEL =        15.6649  VDWAALS    =        -0.1062
 EELEC  =       -10.1448  EHBOND  =         0.0000  RESTRAINT  =         0.0000
 EKCMT  =         1.9026  VIRIAL  =        -4.3911  VOLUME     =    232085.3389
                                                    Density    =         0.0004
 DV/DL  =       -12.6210
 ------------------------------------------------------------------------------

      A V E R A G E S   O V E R    1000 S T E P S

 NSTEP =     1000   TIME(PS) =     202.000  TEMP(K) =   294.35  PRESS =     1.4
 Etot   =        21.3007  EKtot   =         8.1891  EPtot      =        13.1115
 BOND   =         0.8397  ANGLE   =         4.0712  DIHED      =         1.9895
 1-4 NB =         0.7642  1-4 EEL =        15.9359  VDWAALS    =        -0.1176
 EELEC  =       -10.3715  EHBOND  =         0.0000  RESTRAINT  =         0.0000
 EKCMT  =         1.5621  VIRIAL  =        -5.5817  VOLUME     =    232084.6603
                                                    Density    =         0.0004
 DV/DL  =       -12.7222
 ------------------------------------------------------------------------------

      R M S  F L U C T U A T I O N S

 NSTEP =     1000   TIME(PS) =     202.000  TEMP(K) =    66.78  PRESS =     0.6
 Etot   =         1.9154  EKtot   =         1.8580  EPtot      =         1.9317
 BOND   =         0.6442  ANGLE   =         1.1810  DIHED      =         1.2886
 1-4 NB =         0.9844  1-4 EEL =         2.2287  VDWAALS    =         0.0380
 EELEC  =         2.2648  EHBOND  =         0.0000  RESTRAINT  =         0.0000
 EKCMT  =         1.1366  VIRIAL  =         2.5970  VOLUME     =         0.5559
                                                    Density    =         0.0000
 DV/DL  =         0.3384
 ------------------------------------------------------------------------------

      A V E R A G E S   O V E R    1000 S T E P S

 NSTEP =     1000   TIME(PS) =     202.000  TEMP(K) =   294.35  PRESS =     1.4
 Etot   =        21.3007  EKtot   =         8.1891  EPtot      =        13.1115
 BOND   =         0.8397  ANGLE   =         4.0712  DIHED      =         1.9895
 1-4 NB =         0.7642  1-4 EEL =        15.9359  VDWAALS    =        -0.1176
 EELEC  =       -10.3715  EHBOND  =         0.0000  RESTRAINT  =         0.0000
 EKCMT  =         1.5621  VIRIAL  =        -5.5817  VOLUME     =    232084.6603
                                                    Density    =         0.0004
 DV/DL  =       -12.7222
 ------------------------------------------------------------------------------

      R M S  F L U C T U A T I O N S

 NSTEP =     1000   TIME(PS) =     202.000  TEMP(K) =    66.78  PRESS =     0.6
 Etot   =         1.9154  EKtot   =         1.8580  EPtot      =         1.9317
 BOND   =         0.6442  ANGLE   =         1.1810  DIHED      =         1.2886
 1-4 NB =         0.9844  1-4 EEL =         2.2287  VDWAALS    =         0.0380
 EELEC  =         2.2648  EHBOND  =         0.0000  RESTRAINT  =         0.0000
 EKCMT  =         1.1366  VIRIAL  =         2.5970  VOLUME     =         0.5559
                                                    Density    =         0.0000
 DV/DL  =         0.3384
 ------------------------------------------------------------------------------

      DV/DL, AVERAGES OVER    1000 STEPS

 NSTEP =     1000   TIME(PS) =     202.000  TEMP(K) =    66.78  PRESS =     0.0
 Etot   =         0.0000  EKtot   =         0.0000  EPtot      =       -12.7222
 BOND   =         0.0000  ANGLE   =         0.0000  DIHED      =         0.0000
 1-4 NB =         0.0000  1-4 EEL =       -36.4349  VDWAALS    =         0.0000
 EELEC  =        23.7127  EHBOND  =         0.0000  RESTRAINT  =         0.0000
 EKCMT  =         0.0000  VIRIAL  =         0.0000  VOLUME     =         0.0000
                                                    Density    =         0.0000
 DV/DL  =       -12.7222
 ------------------------------------------------------------------------------

      A V E R A G E S   O V E R    1000 S T E P S

 NSTEP =     2000   TIME(PS) =     204.000  TEMP(K) =   351.77  PRESS =     1.6
 Etot   =        24.1812  EKtot   =         9.7865  EPtot      =        14.3946
 BOND   =         1.1993  ANGLE   =         5.4907  DIHED      =         1.5930
 1-4 NB =         0.6910  1-4 EEL =        16.6934  VDWAALS    =        -0.1322
 EELEC  =       -11.1406  EHBOND  =         0.0000  RESTRAINT  =         0.0000
 EKCMT  =         2.3090  VIRIAL  =        -5.5966  VOLUME     =    232086.5233
                                                    Density    =         0.0004
 DV/DL  =       -12.6956
 ------------------------------------------------------------------------------

      R M S  F L U C T U A T I O N S

 NSTEP =     2000   TIME(PS) =     204.000  TEMP(K) =    91.12  PRESS =     0.5
 Etot   =         3.3426  EKtot   =         2.5350  EPtot      =         2.2866
 BOND   =         0.8995  ANGLE   =         1.8036  DIHED      =         1.0698
 1-4 NB =         0.5020  1-4 EEL =         1.8264  VDWAALS    =         0.0357
 EELEC  =         1.8507  EHBOND  =         0.0000  RESTRAINT  =         0.0000
 EKCMT  =         1.3391  VIRIAL  =         2.1209  VOLUME     =         0.7463
                                                    Density    =         0.0000
 DV/DL  =         0.3248
 ------------------------------------------------------------------------------

      A V E R A G E S   O V E R    1000 S T E P S

 NSTEP =     2000   TIME(PS) =     204.000  TEMP(K) =   351.77  PRESS =     1.6
 Etot   =        24.1812  EKtot   =         9.7865  EPtot      =        14.3946
 BOND   =         1.1993  ANGLE   =         5.4907  DIHED      =         1.5930
 1-4 NB =         0.6910  1-4 EEL =        16.6934  VDWAALS    =        -0.1322
 EELEC  =       -11.1406  EHBOND  =         0.0000  RESTRAINT  =         0.0000
 EKCMT  =         2.3090  VIRIAL  =        -5.5966  VOLUME     =    232086.5233
                                                    Density    =         0.0004
 DV/DL  =       -12.6956
 ------------------------------------------------------------------------------

      R M S  F L U C T U A T I O N S

 NSTEP =     2000   TIME(PS) =     204.000  TEMP(K) =    91.12  PRESS =     0.5
 Etot   =         3.3426  EKtot   =         2.5350  EPtot      =         2.2866
 BOND   =         0.8995  ANGLE   =         1.8036  DIHED      =         1.0698
 1-4 NB =         0.5020  1-4 EEL =         1.8264  VDWAALS    =         0.0357
 EELEC  =         1.8507  EHBOND  =         0.0000  RESTRAINT  =         0.0000
 EKCMT  =         1.3391  VIRIAL  =         2.1209  VOLUME     =         0.7463
                                                    Density    =         0.0000
 DV/DL  =         0.3248
 ------------------------------------------------------------------------------

      DV/DL, AVERAGES OVER    1000 STEPS

 NSTEP =     2000   TIME(PS) =     204.000  TEMP(K) =    91.12  PRESS =     0.0
 Etot   =         0.0000  EKtot   =         0.0000  EPtot      =       -12.6956
 BOND   =         0.0000  ANGLE   =         0.0000  DIHED      =         0.0000
 1-4 NB =         0.0000  1-4 EEL =       -38.1667  VDWAALS    =         0.0000
 EELEC  =        25.4711  EHBOND  =         0.0000  RESTRAINT  =         0.0000
 EKCMT  =         0.0000  VIRIAL  =         0.0000  VOLUME     =         0.0000
                                                    Density    =         0.0000
 DV/DL  =       -12.6956
 ------------------------------------------------------------------------------

      A V E R A G E S   O V E R    1000 S T E P S

 NSTEP =   500000   TIME(PS) =    1200.000  TEMP(K) =   266.66  PRESS =     1.3
 Etot   =        21.3629  EKtot   =         7.4187  EPtot      =        13.9443
 BOND   =         0.9352  ANGLE   =         4.6399  DIHED      =         0.9489
 1-4 NB =         0.5768  1-4 EEL =        18.0836  VDWAALS    =        -0.0642
 EELEC  =       -11.1760  EHBOND  =         0.0000  RESTRAINT  =         0.0000
 EKCMT  =         1.1954  VIRIAL  =        -5.5643  VOLUME     =    232803.5557
                                                    Density    =         0.0004
 DV/DL  =       -15.7933
 ------------------------------------------------------------------------------

      R M S  F L U C T U A T I O N S

 NSTEP =   500000   TIME(PS) =    1200.000  TEMP(K) =    64.88  PRESS =     0.3
 Etot   =         2.2039  EKtot   =         1.8051  EPtot      =         1.8216
 BOND   =         0.7127  ANGLE   =         1.7133  DIHED      =         0.5390
 1-4 NB =         0.4421  1-4 EEL =         0.9690  VDWAALS    =         0.0149
 EELEC  =         1.0244  EHBOND  =         0.0000  RESTRAINT  =         0.0000
 EKCMT  =         0.7006  VIRIAL  =         1.2660  VOLUME     =         0.2812
                                                    Density    =         0.0000
 DV/DL  =         0.6916
 ------------------------------------------------------------------------------

      A V E R A G E S   O V E R    1000 S T E P S

 NSTEP =   500000   TIME(PS) =    1200.000  TEMP(K) =   266.66  PRESS =     1.3
 Etot   =        21.3629  EKtot   =         7.4187  EPtot      =        13.9443
 BOND   =         0.9352  ANGLE   =         4.6399  DIHED      =         0.9489
 1-4 NB =         0.5768  1-4 EEL =        18.0836  VDWAALS    =        -0.0642
 EELEC  =       -11.1760  EHBOND  =         0.0000  RESTRAINT  =         0.0000
 EKCMT  =         1.1954  VIRIAL  =        -5.5643  VOLUME     =    232803.5557
                                                    Density    =         0.0004
 DV/DL  =       -15.7933
 ------------------------------------------------------------------------------

      R M S  F L U C T U A T I O N S

 NSTEP =   500000   TIME(PS) =    1200.000  TEMP(K) =    64.88  PRESS =     0.3
 Etot   =         2.2039  EKtot   =         1.8051  EPtot      =         1.8216
 BOND   =         0.7127  ANGLE   =         1.7133  DIHED      =         0.5390
 1-4 NB =         0.4421  1-4 EEL =         0.9690  VDWAALS    =         0.0149
 EELEC  =         1.0244  EHBOND  =         0.0000  RESTRAINT  =         0.0000
 EKCMT  =         0.7006  VIRIAL  =         1.2660  VOLUME     =         0.2812
                                                    Density    =         0.0000
 DV/DL  =         0.6916
 ------------------------------------------------------------------------------

      DV/DL, AVERAGES OVER    1000 STEPS

 NSTEP =   500000   TIME(PS) =    1200.000  TEMP(K) =    64.88  PRESS =     0.0
 Etot   =         0.0000  EKtot   =         0.0000  EPtot      =       -15.7933
 BOND   =         0.0000  ANGLE   =         0.0000  DIHED      =         0.0000
 1-4 NB =         0.0000  1-4 EEL =       -41.3454  VDWAALS    =         0.0000
 EELEC  =        25.5521  EHBOND  =         0.0000  RESTRAINT  =         0.0000
 EKCMT  =         0.0000  VIRIAL  =         0.0000  VOLUME     =         0.0000
                                                    Density    =         0.0000
 DV/DL  =       -15.7933
 ------------------------------------------------------------------------------

      A V E R A G E S   O V E R  500000 S T E P S

 NSTEP =   500000   TIME(PS) =    1200.000  TEMP(K) =   297.86  PRESS =     1.4
 Etot   =        21.3207  EKtot   =         8.2866  EPtot      =        13.0341
 BOND   =         0.9487  ANGLE   =         4.8746  DIHED      =         1.1241
 1-4 NB =         0.4592  1-4 EEL =        15.4374  VDWAALS    =        -0.0861
 EELEC  =        -9.7239  EHBOND  =         0.0000  RESTRAINT  =         0.0000
 EKCMT  =         1.8142  VIRIAL  =        -5.0145  VOLUME     =    232423.8655
                                                    Density    =         0.0004
 DV/DL  =       -13.0631
 ------------------------------------------------------------------------------

      R M S  F L U C T U A T I O N S

 NSTEP =   500000   TIME(PS) =    1200.000  TEMP(K) =    78.92  PRESS =     0.5
 Etot   =         3.0879  EKtot   =         2.1957  EPtot      =         2.1649
 BOND   =         0.7728  ANGLE   =         1.7139  DIHED      =         0.8014
 1-4 NB =         0.5050  1-4 EEL =         2.8350  VDWAALS    =         0.0381
 EELEC  =         2.9241  EHBOND  =         0.0000  RESTRAINT  =         0.0000
 EKCMT  =         1.4236  VIRIAL  =         1.7483  VOLUME     =       201.8609
                                                    Density    =         0.0000
 DV/DL  =         0.6976
 ------------------------------------------------------------------------------

      A V E R A G E S   O V E R  500000 S T E P S

 NSTEP =   500000   TIME(PS) =    1200.000  TEMP(K) =   297.86  PRESS =     1.4
 Etot   =        21.3207  EKtot   =         8.2866  EPtot      =        13.0341
 BOND   =         0.9487  ANGLE   =         4.8746  DIHED      =         1.1241
 1-4 NB =         0.4592  1-4 EEL =        15.4374  VDWAALS    =        -0.0861
 EELEC  =        -9.7239  EHBOND  =         0.0000  RESTRAINT  =         0.0000
 EKCMT  =         1.8142  VIRIAL  =        -5.0145  VOLUME     =    232423.8655
                                                    Density    =         0.0004
 DV/DL  =       -13.0631
 ------------------------------------------------------------------------------

      R M S  F L U C T U A T I O N S

 NSTEP =   500000   TIME(PS) =    1200.000  TEMP(K) =    78.92  PRESS =     0.5
 Etot   =         3.0879  EKtot   =         2.1957  EPtot      =         2.1649
 BOND   =         0.7728  ANGLE   =         1.7139  DIHED      =         0.8014
 1-4 NB =         0.5050  1-4 EEL =         2.8350  VDWAALS    =         0.0381
 EELEC  =         2.9241  EHBOND  =         0.0000  RESTRAINT  =         0.0000
 EKCMT  =         1.4236  VIRIAL  =         1.7483  VOLUME     =       201.8609
                                                    Density    =         0.0000
 DV/DL  =         0.6976
 ------------------------------------------------------------------------------

      DV/DL, AVERAGES OVER  500000 STEPS

 NSTEP =   500000   TIME(PS) =    1200.000  TEMP(K) =    78.92  PRESS =     0.0
 Etot   =         0.0000  EKtot   =         0.0000  EPtot      =       -13.0631
 BOND   =         0.0000  ANGLE   =         0.0000  DIHED      =         0.0000
 1-4 NB =         0.0000  1-4 EEL =       -35.2952  VDWAALS    =         0.0000
 EELEC  =        22.2321  EHBOND  =         0.0000  RESTRAINT  =         0.0000
 EKCMT  =         0.0000  VIRIAL  =         0.0000  VOLUME     =         0.0000
                                                    Density    =         0.0000
 DV/DL  =       -13.0631
 ------------------------------------------------------------------------------
