-------------------------------------------------------
          Amber 18 PMEMD                              2018
          -------------------------------------------------------

  [-O]verwriting output

File Assignments:

 Here is the input file:

 &cntrl
   nstlim=500000, nscm=1000,
   ntx=5, irest=1, ntpr=1000,
   tempi=300.0, temp0=300.0, ntt=3, gamma_ln=2.0,
   ntp=1, pres0=1.01325, taup=5.0,
   ntb=2, igb=0, cut=10.0,
   dt=0.002, ig=-1,
   ntc=2, ntf=2,
   iwrap=0,
   ntwr=1000, ntwx=50000, ntave=1000,
   ioutfm=1, ntwv=-1,
   ifsc = 0, icfe=1,
   clambda=0.00922,
   timask1=':1',
   timask2=':2', crgmask = ':2',
/

Note: ig = -1. Setting random seed to   561155 based on wallclock time in
      microseconds.

--------------------------------------------------------------------------------
   1.  RESOURCE   USE:
--------------------------------------------------------------------------------

 getting box info from netcdf restart file
 NATOM  =      24 NTYPES =       6 NBONH =      16 MBONA  =       6
 NTHETH =      32 MTHETA =       4 NPHIH =      40 MPHIA  =       2
 NHPARM =       0 NPARM  =       0 NNB   =     102 NRES   =       2
 NBONA  =       6 NTHETA =       4 NPHIA =       2 NUMBND =       4
 NUMANG =       6 NPTRA  =       2 NATYP =       6 NPHB   =       1
 IFBOX  =       2 NMXRS  =      12 IFCAP =       0 NEXTRA =       0
 NCOPY  =       0

     BOX TYPE: TRUNCATED OCTAHEDRON

--------------------------------------------------------------------------------
   2.  CONTROL  DATA  FOR  THE  RUN
--------------------------------------------------------------------------------

default_name

General flags:
     imin    =       0, nmropt  =       0

Nature and format of input:
     ntx     =       5, irest   =       1, ntrx    =       1

Nature and format of output:
     ntxo    =       2, ntpr    =    1000, ntrx    =       1, ntwr    =    1000
     iwrap   =       0, ntwx    =   50000, ntwv    =      -1, ntwe    =       0
     ioutfm  =       1, ntwprt  =       0, idecomp =       0, rbornstat=      0

Potential function:
     ntf     =       2, ntb     =       2, igb     =       0, nsnb    =      25
     ipol    =       0, gbsa    =       0, iesp    =       0
     dielc   =   1.00000, cut     =  10.00000, intdiel =   1.00000

Frozen or restrained atoms:
     ibelly  =       0, ntr     =       0

Molecular dynamics:
     nstlim  =    500000, nscm    =      1000, nrespa  =         1
     t       =   0.00000, dt      =   0.00200, vlimit  =  -1.00000

Langevin dynamics temperature regulation:
     ig      =  561155
     temp0   = 300.00000, tempi   = 300.00000, gamma_ln=   2.00000

Pressure regulation:
     ntp     =       1
     pres0   =   1.01325, comp    =  44.60000, taup    =   5.00000

SHAKE:
     ntc     =       2, jfastw  =       0
     tol     =   0.00001

Free energy options:
     icfe    =       1, ifsc    =       0, klambda =       1
     clambda =  0.0092, scalpha =  0.5000, scbeta  = 12.0000
     sceeorder =       2
     dynlmb =  0.0000 logdvdl =       0

Ewald parameters:
     verbose =       0, ew_type =       0, nbflag  =       1, use_pme =       1
     vdwmeth =       1, eedmeth =       1, netfrc  =       1
     Box X =   67.054   Box Y =   67.054   Box Z =   67.054
     Alpha =  109.471   Beta  =  109.471   Gamma =  109.471
     NFFT1 =   64       NFFT2 =   64       NFFT3 =   64
     Cutoff=   10.000   Tol   =0.100E-04
     Ewald Coefficient =  0.27511
     Interpolation order =    4
     TI Mask 1 :1; matches     12 atoms
     TI Mask 2 :2; matches     12 atoms
     TI region 1:      12 atoms
     TI region 2:      12 atoms
Removing charge of      -0.6664 from atom      13
Removing charge of      -0.6664 from atom      14
Removing charge of      -0.0664 from atom      15
Removing charge of      -0.0664 from atom      16
Removing charge of       0.2792 from atom      17
Removing charge of       0.2802 from atom      18
Removing charge of       0.2802 from atom      19
Removing charge of       0.2792 from atom      20
Removing charge of       0.0898 from atom      21
Removing charge of       0.0837 from atom      22
Removing charge of       0.0898 from atom      23
Removing charge of       0.0837 from atom      24
Total charge of  -0.00000000 removed from      12 atoms
     Checking for mismatched coordinates.

--------------------------------------------------------------------------------
   3.  ATOMIC COORDINATES AND VELOCITIES
--------------------------------------------------------------------------------

default_name
 begin time read from input coords =   200.000 ps

 Number of triangulated 3-point waters found:        0

     Sum of charges for TI region  1 =  -0.00000000
     Forcing neutrality...

     Sum of charges for TI region  2 =   0.00000000
     Forcing neutrality...

--------------------------------------------------------------------------------
   4.  RESULTS
 NSTEP =     1000   TIME(PS) =     202.000  TEMP(K) =   330.39  PRESS =     0.0
 Etot   =        27.3325  EKtot   =         9.1918  EPtot      =        18.1407
 BOND   =         0.3130  ANGLE   =         3.8141  DIHED      =         0.8712
 1-4 NB =         0.3718  1-4 EEL =        40.3745  VDWAALS    =        -0.0969
 EELEC  =       -27.5069  EHBOND  =         0.0000  RESTRAINT  =         0.0000
 EKCMT  =         0.1239  VIRIAL  =        -0.0656  VOLUME     =    232080.0031
                                                    Density    =         0.0004
 DV/DL  =       -12.9873
 ------------------------------------------------------------------------------

      A V E R A G E S   O V E R    1000 S T E P S

 NSTEP =     1000   TIME(PS) =     202.000  TEMP(K) =   308.54  PRESS =     0.1
 Etot   =        29.7039  EKtot   =         8.5837  EPtot      =        21.1203
 BOND   =         1.0909  ANGLE   =         5.0570  DIHED      =         1.5458
 1-4 NB =         0.5351  1-4 EEL =        39.3187  VDWAALS    =        -0.0900
 EELEC  =       -26.3373  EHBOND  =         0.0000  RESTRAINT  =         0.0000
 EKCMT  =         0.6046  VIRIAL  =        -0.0753  VOLUME     =    232081.8554
                                                    Density    =         0.0004
 DV/DL  =       -13.1022
 ------------------------------------------------------------------------------

      R M S  F L U C T U A T I O N S

 NSTEP =     1000   TIME(PS) =     202.000  TEMP(K) =    93.95  PRESS =     0.1
 Etot   =         3.2595  EKtot   =         2.6137  EPtot      =         2.0109
 BOND   =         0.8733  ANGLE   =         1.6101  DIHED      =         0.9264
 1-4 NB =         0.3895  1-4 EEL =         2.6469  VDWAALS    =         0.0244
 EELEC  =         2.7412  EHBOND  =         0.0000  RESTRAINT  =         0.0000
 EKCMT  =         0.5536  VIRIAL  =         0.0192  VOLUME     =         1.0477
                                                    Density    =         0.0000
 DV/DL  =         0.5004
 ------------------------------------------------------------------------------

      A V E R A G E S   O V E R    1000 S T E P S

 NSTEP =     1000   TIME(PS) =     202.000  TEMP(K) =   308.54  PRESS =     0.1
 Etot   =        29.7039  EKtot   =         8.5837  EPtot      =        21.1203
 BOND   =         1.0909  ANGLE   =         5.0570  DIHED      =         1.5458
 1-4 NB =         0.5351  1-4 EEL =        39.3187  VDWAALS    =        -0.0900
 EELEC  =       -26.3373  EHBOND  =         0.0000  RESTRAINT  =         0.0000
 EKCMT  =         0.6046  VIRIAL  =        -0.0753  VOLUME     =    232081.8554
                                                    Density    =         0.0004
 DV/DL  =       -13.1022
 ------------------------------------------------------------------------------

      R M S  F L U C T U A T I O N S

 NSTEP =     1000   TIME(PS) =     202.000  TEMP(K) =    93.95  PRESS =     0.1
 Etot   =         3.2595  EKtot   =         2.6137  EPtot      =         2.0109
 BOND   =         0.8733  ANGLE   =         1.6101  DIHED      =         0.9264
 1-4 NB =         0.3895  1-4 EEL =         2.6469  VDWAALS    =         0.0244
 EELEC  =         2.7412  EHBOND  =         0.0000  RESTRAINT  =         0.0000
 EKCMT  =         0.5536  VIRIAL  =         0.0192  VOLUME     =         1.0477
                                                    Density    =         0.0000
 DV/DL  =         0.5004
 ------------------------------------------------------------------------------

      DV/DL, AVERAGES OVER    1000 STEPS

 NSTEP =     1000   TIME(PS) =     202.000  TEMP(K) =    93.95  PRESS =     0.0
 Etot   =         0.0000  EKtot   =         0.0000  EPtot      =       -13.1022
 BOND   =         0.0000  ANGLE   =         0.0000  DIHED      =         0.0000
 1-4 NB =         0.0000  1-4 EEL =       -39.6846  VDWAALS    =         0.0000
 EELEC  =        26.5824  EHBOND  =         0.0000  RESTRAINT  =         0.0000
 EKCMT  =         0.0000  VIRIAL  =         0.0000  VOLUME     =         0.0000
                                                    Density    =         0.0000
 DV/DL  =       -13.1022
 ------------------------------------------------------------------------------

      A V E R A G E S   O V E R    1000 S T E P S

 NSTEP =     2000   TIME(PS) =     204.000  TEMP(K) =   347.31  PRESS =     0.3
 Etot   =        32.0689  EKtot   =         9.6623  EPtot      =        22.4065
 BOND   =         1.2721  ANGLE   =         6.5854  DIHED      =         1.0961
 1-4 NB =         0.5232  1-4 EEL =        40.2210  VDWAALS    =        -0.0862
 EELEC  =       -27.2051  EHBOND  =         0.0000  RESTRAINT  =         0.0000
 EKCMT  =         1.2590  VIRIAL  =        -0.0744  VOLUME     =    232078.4841
                                                    Density    =         0.0004
 DV/DL  =       -13.1369
 ------------------------------------------------------------------------------

      R M S  F L U C T U A T I O N S

 NSTEP =     2000   TIME(PS) =     204.000  TEMP(K) =    81.66  PRESS =     0.2
 Etot   =         3.0508  EKtot   =         2.2719  EPtot      =         2.5008
 BOND   =         1.0047  ANGLE   =         2.2984  DIHED      =         0.5427
 1-4 NB =         0.3061  1-4 EEL =         1.7344  VDWAALS    =         0.0128
 EELEC  =         1.6946  EHBOND  =         0.0000  RESTRAINT  =         0.0000
 EKCMT  =         0.7647  VIRIAL  =         0.0159  VOLUME     =         0.8631
                                                    Density    =         0.0000
 DV/DL  =         0.7009
 ------------------------------------------------------------------------------

      A V E R A G E S   O V E R    1000 S T E P S

 NSTEP =     2000   TIME(PS) =     204.000  TEMP(K) =   347.31  PRESS =     0.3
 Etot   =        32.0689  EKtot   =         9.6623  EPtot      =        22.4065
 BOND   =         1.2721  ANGLE   =         6.5854  DIHED      =         1.0961
 1-4 NB =         0.5232  1-4 EEL =        40.2210  VDWAALS    =        -0.0862
 EELEC  =       -27.2051  EHBOND  =         0.0000  RESTRAINT  =         0.0000
 EKCMT  =         1.2590  VIRIAL  =        -0.0744  VOLUME     =    232078.4841
                                                    Density    =         0.0004
 DV/DL  =       -13.1369
 ------------------------------------------------------------------------------

      R M S  F L U C T U A T I O N S

 NSTEP =     2000   TIME(PS) =     204.000  TEMP(K) =    81.66  PRESS =     0.2
 Etot   =         3.0508  EKtot   =         2.2719  EPtot      =         2.5008
 BOND   =         1.0047  ANGLE   =         2.2984  DIHED      =         0.5427
 1-4 NB =         0.3061  1-4 EEL =         1.7344  VDWAALS    =         0.0128
 EELEC  =         1.6946  EHBOND  =         0.0000  RESTRAINT  =         0.0000
 EKCMT  =         0.7647  VIRIAL  =         0.0159  VOLUME     =         0.8631
                                                    Density    =         0.0000
 DV/DL  =         0.7009
 ------------------------------------------------------------------------------

      DV/DL, AVERAGES OVER    1000 STEPS

 NSTEP =     2000   TIME(PS) =     204.000  TEMP(K) =    81.66  PRESS =     0.0
 Etot   =         0.0000  EKtot   =         0.0000  EPtot      =       -13.1369
 BOND   =         0.0000  ANGLE   =         0.0000  DIHED      =         0.0000
 1-4 NB =         0.0000  1-4 EEL =       -40.5952  VDWAALS    =         0.0000
 EELEC  =        27.4583  EHBOND  =         0.0000  RESTRAINT  =         0.0000
 EKCMT  =         0.0000  VIRIAL  =         0.0000  VOLUME     =         0.0000
                                                    Density    =         0.0000
 DV/DL  =       -13.1369
 ------------------------------------------------------------------------------

      A V E R A G E S   O V E R    1000 S T E P S

 NSTEP =   500000   TIME(PS) =    1200.000  TEMP(K) =   333.32  PRESS =     0.4
 Etot   =        30.8912  EKtot   =         9.2731  EPtot      =        21.6182
 BOND   =         1.2655  ANGLE   =         5.6580  DIHED      =         1.4170
 1-4 NB =         0.5876  1-4 EEL =        40.6564  VDWAALS    =        -0.0984
 EELEC  =       -27.8678  EHBOND  =         0.0000  RESTRAINT  =         0.0000
 EKCMT  =         1.9305  VIRIAL  =        -0.0807  VOLUME     =    230747.5154
                                                    Density    =         0.0004
 DV/DL  =       -12.9076
 ------------------------------------------------------------------------------

      R M S  F L U C T U A T I O N S

 NSTEP =   500000   TIME(PS) =    1200.000  TEMP(K) =    79.48  PRESS =     0.3
 Etot   =         2.2040  EKtot   =         2.2113  EPtot      =         2.0238
 BOND   =         0.9622  ANGLE   =         1.7458  DIHED      =         0.7478
 1-4 NB =         0.4350  1-4 EEL =         2.6986  VDWAALS    =         0.0196
 EELEC  =         2.7892  EHBOND  =         0.0000  RESTRAINT  =         0.0000
 EKCMT  =         1.5056  VIRIAL  =         0.0225  VOLUME     =         0.5890
                                                    Density    =         0.0000
 DV/DL  =         0.4456
 ------------------------------------------------------------------------------

      A V E R A G E S   O V E R    1000 S T E P S

 NSTEP =   500000   TIME(PS) =    1200.000  TEMP(K) =   333.32  PRESS =     0.4
 Etot   =        30.8912  EKtot   =         9.2731  EPtot      =        21.6182
 BOND   =         1.2655  ANGLE   =         5.6580  DIHED      =         1.4170
 1-4 NB =         0.5876  1-4 EEL =        40.6564  VDWAALS    =        -0.0984
 EELEC  =       -27.8678  EHBOND  =         0.0000  RESTRAINT  =         0.0000
 EKCMT  =         1.9305  VIRIAL  =        -0.0807  VOLUME     =    230747.5154
                                                    Density    =         0.0004
 DV/DL  =       -12.9076
 ------------------------------------------------------------------------------

      R M S  F L U C T U A T I O N S

 NSTEP =   500000   TIME(PS) =    1200.000  TEMP(K) =    79.48  PRESS =     0.3
 Etot   =         2.2040  EKtot   =         2.2113  EPtot      =         2.0238
 BOND   =         0.9622  ANGLE   =         1.7458  DIHED      =         0.7478
 1-4 NB =         0.4350  1-4 EEL =         2.6986  VDWAALS    =         0.0196
 EELEC  =         2.7892  EHBOND  =         0.0000  RESTRAINT  =         0.0000
 EKCMT  =         1.5056  VIRIAL  =         0.0225  VOLUME     =         0.5890
                                                    Density    =         0.0000
 DV/DL  =         0.4456
 ------------------------------------------------------------------------------

      DV/DL, AVERAGES OVER    1000 STEPS

 NSTEP =   500000   TIME(PS) =    1200.000  TEMP(K) =    79.48  PRESS =     0.0
 Etot   =         0.0000  EKtot   =         0.0000  EPtot      =       -12.9076
 BOND   =         0.0000  ANGLE   =         0.0000  DIHED      =         0.0000
 1-4 NB =         0.0000  1-4 EEL =       -41.0347  VDWAALS    =         0.0000
 EELEC  =        28.1271  EHBOND  =         0.0000  RESTRAINT  =         0.0000
 EKCMT  =         0.0000  VIRIAL  =         0.0000  VOLUME     =         0.0000
                                                    Density    =         0.0000
 DV/DL  =       -12.9076
 ------------------------------------------------------------------------------

      A V E R A G E S   O V E R  500000 S T E P S

 NSTEP =   500000   TIME(PS) =    1200.000  TEMP(K) =   297.99  PRESS =     0.4
 Etot   =        28.2084  EKtot   =         8.2903  EPtot      =        19.9181
 BOND   =         0.9611  ANGLE   =         4.8748  DIHED      =         1.1257
 1-4 NB =         0.4777  1-4 EEL =        37.1021  VDWAALS    =        -0.0932
 EELEC  =       -24.5301  EHBOND  =         0.0000  RESTRAINT  =         0.0000
 EKCMT  =         1.7444  VIRIAL  =        -0.0810  VOLUME     =    231410.1455
                                                    Density    =         0.0004
 DV/DL  =       -12.6890
 ------------------------------------------------------------------------------

      R M S  F L U C T U A T I O N S

 NSTEP =   500000   TIME(PS) =    1200.000  TEMP(K) =    79.48  PRESS =     0.3
 Etot   =         3.0603  EKtot   =         2.2111  EPtot      =         2.1308
 BOND   =         0.7831  ANGLE   =         1.7140  DIHED      =         0.8052
 1-4 NB =         0.4258  1-4 EEL =         5.3289  VDWAALS    =         0.0338
 EELEC  =         5.6750  EHBOND  =         0.0000  RESTRAINT  =         0.0000
 EKCMT  =         1.4667  VIRIAL  =         0.0246  VOLUME     =       383.6037
                                                    Density    =         0.0000
 DV/DL  =         0.7045
 ------------------------------------------------------------------------------

      A V E R A G E S   O V E R  500000 S T E P S

 NSTEP =   500000   TIME(PS) =    1200.000  TEMP(K) =   297.99  PRESS =     0.4
 Etot   =        28.2084  EKtot   =         8.2903  EPtot      =        19.9181
 BOND   =         0.9611  ANGLE   =         4.8748  DIHED      =         1.1257
 1-4 NB =         0.4777  1-4 EEL =        37.1021  VDWAALS    =        -0.0932
 EELEC  =       -24.5301  EHBOND  =         0.0000  RESTRAINT  =         0.0000
 EKCMT  =         1.7444  VIRIAL  =        -0.0810  VOLUME     =    231410.1455
                                                    Density    =         0.0004
 DV/DL  =       -12.6890
 ------------------------------------------------------------------------------

      R M S  F L U C T U A T I O N S

 NSTEP =   500000   TIME(PS) =    1200.000  TEMP(K) =    79.48  PRESS =     0.3
 Etot   =         3.0603  EKtot   =         2.2111  EPtot      =         2.1308
 BOND   =         0.7831  ANGLE   =         1.7140  DIHED      =         0.8052
 1-4 NB =         0.4258  1-4 EEL =         5.3289  VDWAALS    =         0.0338
 EELEC  =         5.6750  EHBOND  =         0.0000  RESTRAINT  =         0.0000
 EKCMT  =         1.4667  VIRIAL  =         0.0246  VOLUME     =       383.6037
                                                    Density    =         0.0000
 DV/DL  =         0.7045
 ------------------------------------------------------------------------------

      DV/DL, AVERAGES OVER  500000 STEPS

 NSTEP =   500000   TIME(PS) =    1200.000  TEMP(K) =    79.48  PRESS =     0.0
 Etot   =         0.0000  EKtot   =         0.0000  EPtot      =       -12.6890
 BOND   =         0.0000  ANGLE   =         0.0000  DIHED      =         0.0000
 1-4 NB =         0.0000  1-4 EEL =       -37.4474  VDWAALS    =         0.0000
 EELEC  =        24.7584  EHBOND  =         0.0000  RESTRAINT  =         0.0000
 EKCMT  =         0.0000  VIRIAL  =         0.0000  VOLUME     =         0.0000
                                                    Density    =         0.0000
 DV/DL  =       -12.6890
 ------------------------------------------------------------------------------
