-------------------------------------------------------
          Amber 18 PMEMD                              2018
          -------------------------------------------------------

  [-O]verwriting output

File Assignments:

 Here is the input file:

 &cntrl
   nstlim=500000, nscm=1000,
   ntx=5, irest=1, ntpr=1000,
   tempi=300.0, temp0=300.0, ntt=3, gamma_ln=2.0,
   ntp=1, pres0=1.01325, taup=5.0,
   ntb=2, igb=0, cut=10.0,
   dt=0.002, ig=-1,
   ntc=2, ntf=2,
   iwrap=0,
   ntwr=1000, ntwx=50000, ntave=1000,
   ioutfm=1, ntwv=-1,
   ifsc = 0, icfe=1,
   clambda=0.04794,
   timask1=':1',
   timask2=':2', crgmask = ':2',
/

Note: ig = -1. Setting random seed to   506624 based on wallclock time in
      microseconds.

--------------------------------------------------------------------------------
   1.  RESOURCE   USE:
--------------------------------------------------------------------------------

 getting box info from netcdf restart file
 NATOM  =   20967 NTYPES =       6 NBONH =   20959 MBONA  =       6
 NTHETH =      32 MTHETA =       4 NPHIH =      40 MPHIA  =       2
 NHPARM =       0 NPARM  =       0 NNB   =   28026 NRES   =    6983
 NBONA  =       6 NTHETA =       4 NPHIA =       2 NUMBND =       6
 NUMANG =       6 NPTRA  =       2 NATYP =       6 NPHB   =       1
 IFBOX  =       2 NMXRS  =      12 IFCAP =       0 NEXTRA =       0
 NCOPY  =       0

     BOX TYPE: TRUNCATED OCTAHEDRON

--------------------------------------------------------------------------------
   2.  CONTROL  DATA  FOR  THE  RUN
--------------------------------------------------------------------------------

default_name

General flags:
     imin    =       0, nmropt  =       0

Nature and format of input:
     ntx     =       5, irest   =       1, ntrx    =       1

Nature and format of output:
     ntxo    =       2, ntpr    =    1000, ntrx    =       1, ntwr    =    1000
     iwrap   =       0, ntwx    =   50000, ntwv    =      -1, ntwe    =       0
     ioutfm  =       1, ntwprt  =       0, idecomp =       0, rbornstat=      0

Potential function:
     ntf     =       2, ntb     =       2, igb     =       0, nsnb    =      25
     ipol    =       0, gbsa    =       0, iesp    =       0
     dielc   =   1.00000, cut     =  10.00000, intdiel =   1.00000

Frozen or restrained atoms:
     ibelly  =       0, ntr     =       0

Molecular dynamics:
     nstlim  =    500000, nscm    =      1000, nrespa  =         1
     t       =   0.00000, dt      =   0.00200, vlimit  =  -1.00000

Langevin dynamics temperature regulation:
     ig      =  506624
     temp0   = 300.00000, tempi   = 300.00000, gamma_ln=   2.00000

Pressure regulation:
     ntp     =       1
     pres0   =   1.01325, comp    =  44.60000, taup    =   5.00000

SHAKE:
     ntc     =       2, jfastw  =       0
     tol     =   0.00001

Free energy options:
     icfe    =       1, ifsc    =       0, klambda =       1
     clambda =  0.0479, scalpha =  0.5000, scbeta  = 12.0000
     sceeorder =       2
     dynlmb =  0.0000 logdvdl =       0

Ewald parameters:
     verbose =       0, ew_type =       0, nbflag  =       1, use_pme =       1
     vdwmeth =       1, eedmeth =       1, netfrc  =       1
     Box X =   67.054   Box Y =   67.054   Box Z =   67.054
     Alpha =  109.471   Beta  =  109.471   Gamma =  109.471
     NFFT1 =   64       NFFT2 =   64       NFFT3 =   64
     Cutoff=   10.000   Tol   =0.100E-04
     Ewald Coefficient =  0.27511
     Interpolation order =    4
     TI Mask 1 :1; matches     12 atoms
     TI Mask 2 :2; matches     12 atoms
     TI region 1:   20955 atoms
     TI region 2:   20955 atoms
Removing charge of      -0.6664 from atom      13
Removing charge of      -0.6664 from atom      14
Removing charge of      -0.0664 from atom      15
Removing charge of      -0.0664 from atom      16
Removing charge of       0.2792 from atom      17
Removing charge of       0.2802 from atom      18
Removing charge of       0.2802 from atom      19
Removing charge of       0.2792 from atom      20
Removing charge of       0.0898 from atom      21
Removing charge of       0.0837 from atom      22
Removing charge of       0.0898 from atom      23
Removing charge of       0.0837 from atom      24
Total charge of  -0.00000000 removed from      12 atoms
     Checking for mismatched coordinates.

--------------------------------------------------------------------------------
   3.  ATOMIC COORDINATES AND VELOCITIES
--------------------------------------------------------------------------------

default_name
 begin time read from input coords =   200.000 ps

 Number of triangulated 3-point waters found:     6981

     Sum of charges for TI region  1 =  -0.00000000
     Forcing neutrality...

     Sum of charges for TI region  2 =   0.00000000
     Forcing neutrality...

--------------------------------------------------------------------------------
   4.  RESULTS
 NSTEP =     1000   TIME(PS) =     202.000  TEMP(K) =   297.74  PRESS =  -781.1
 Etot   =    -53195.5108  EKtot   =     12399.7106  EPtot      =    -65595.2214
 BOND   =         1.1451  ANGLE   =         6.0650  DIHED      =         1.0004
 1-4 NB =        -0.1012  1-4 EEL =        26.8823  VDWAALS    =      9676.7449
 EELEC  =    -75306.9578  EHBOND  =         0.0000  RESTRAINT  =         0.0000
 EKCMT  =      6252.8878  VIRIAL  =     10108.9608  VOLUME     =    228631.7307
                                                    Density    =         0.9139
 DV/DL  =        -2.7684
 ------------------------------------------------------------------------------

      A V E R A G E S   O V E R    1000 S T E P S

 NSTEP =     1000   TIME(PS) =     202.000  TEMP(K) =   300.40  PRESS =  -839.7
 Etot   =    -52925.4743  EKtot   =     12510.3501  EPtot      =    -65435.8244
 BOND   =         0.9444  ANGLE   =         5.3847  DIHED      =         1.1569
 1-4 NB =         0.2033  1-4 EEL =        26.5384  VDWAALS    =      9583.6110
 EELEC  =    -75053.6632  EHBOND  =         0.0000  RESTRAINT  =         0.0000
 EKCMT  =      6277.5156  VIRIAL  =     10454.0776  VOLUME     =    230338.9345
                                                    Density    =         0.9072
 DV/DL  =        -0.1211
 ------------------------------------------------------------------------------

      R M S  F L U C T U A T I O N S

 NSTEP =     1000   TIME(PS) =     202.000  TEMP(K) =     1.99  PRESS =   107.9
 Etot   =       198.6258  EKtot   =        83.0270  EPtot      =       155.5651
 BOND   =         0.7805  ANGLE   =         1.9515  DIHED      =         0.6370
 1-4 NB =         0.2413  1-4 EEL =         0.6572  VDWAALS    =       121.7678
 EELEC  =       231.6770  EHBOND  =         0.0000  RESTRAINT  =         0.0000
 EKCMT  =        60.3548  VIRIAL  =       552.3314  VOLUME     =       966.0826
                                                    Density    =         0.0038
 DV/DL  =         2.4295
 ------------------------------------------------------------------------------

      A V E R A G E S   O V E R    1000 S T E P S

 NSTEP =     1000   TIME(PS) =     202.000  TEMP(K) =   300.40  PRESS =  -839.7
 Etot   =    -52925.4743  EKtot   =     12510.3501  EPtot      =    -65435.8244
 BOND   =         0.9444  ANGLE   =         5.3847  DIHED      =         1.1569
 1-4 NB =         0.2033  1-4 EEL =        26.5384  VDWAALS    =      9583.6110
 EELEC  =    -75053.6632  EHBOND  =         0.0000  RESTRAINT  =         0.0000
 EKCMT  =      6277.5156  VIRIAL  =     10454.0776  VOLUME     =    230338.9345
                                                    Density    =         0.9072
 DV/DL  =        -0.1211
 ------------------------------------------------------------------------------

      R M S  F L U C T U A T I O N S

 NSTEP =     1000   TIME(PS) =     202.000  TEMP(K) =     1.99  PRESS =   107.9
 Etot   =       198.6258  EKtot   =        83.0270  EPtot      =       155.5651
 BOND   =         0.7805  ANGLE   =         1.9515  DIHED      =         0.6370
 1-4 NB =         0.2413  1-4 EEL =         0.6572  VDWAALS    =       121.7678
 EELEC  =       231.6770  EHBOND  =         0.0000  RESTRAINT  =         0.0000
 EKCMT  =        60.3548  VIRIAL  =       552.3314  VOLUME     =       966.0826
                                                    Density    =         0.0038
 DV/DL  =         2.4295
 ------------------------------------------------------------------------------

      DV/DL, AVERAGES OVER    1000 STEPS

 NSTEP =     1000   TIME(PS) =     202.000  TEMP(K) =     1.99  PRESS =     0.0
 Etot   =         0.0000  EKtot   =         0.0000  EPtot      =        -0.1211
 BOND   =         0.0000  ANGLE   =         0.0000  DIHED      =         0.0000
 1-4 NB =         0.0000  1-4 EEL =       -27.8747  VDWAALS    =         0.0000
 EELEC  =        27.7536  EHBOND  =         0.0000  RESTRAINT  =         0.0000
 EKCMT  =         0.0000  VIRIAL  =         0.0000  VOLUME     =         0.0000
                                                    Density    =         0.0000
 DV/DL  =        -0.1211
 ------------------------------------------------------------------------------

      A V E R A G E S   O V E R    1000 S T E P S

 NSTEP =     2000   TIME(PS) =     204.000  TEMP(K) =   300.41  PRESS =  -682.8
 Etot   =    -53149.2733  EKtot   =     12510.8221  EPtot      =    -65660.0954
 BOND   =         0.8262  ANGLE   =         5.2845  DIHED      =         1.0760
 1-4 NB =         0.2313  1-4 EEL =        26.6136  VDWAALS    =      9687.7625
 EELEC  =    -75381.8894  EHBOND  =         0.0000  RESTRAINT  =         0.0000
 EKCMT  =      6260.2722  VIRIAL  =      9610.5422  VOLUME     =    227169.8456
                                                    Density    =         0.9198
 DV/DL  =         0.3266
 ------------------------------------------------------------------------------

      R M S  F L U C T U A T I O N S

 NSTEP =     2000   TIME(PS) =     204.000  TEMP(K) =     1.96  PRESS =   135.8
 Etot   =        74.3552  EKtot   =        81.7531  EPtot      =        74.3746
 BOND   =         0.5895  ANGLE   =         1.8897  DIHED      =         0.6778
 1-4 NB =         0.2229  1-4 EEL =         0.6461  VDWAALS    =       121.1716
 EELEC  =       151.7581  EHBOND  =         0.0000  RESTRAINT  =         0.0000
 EKCMT  =        64.9770  VIRIAL  =       653.5324  VOLUME     =       802.2591
                                                    Density    =         0.0032
 DV/DL  =         3.3816
 ------------------------------------------------------------------------------

      A V E R A G E S   O V E R    1000 S T E P S

 NSTEP =     2000   TIME(PS) =     204.000  TEMP(K) =   300.41  PRESS =  -682.8
 Etot   =    -53149.2733  EKtot   =     12510.8221  EPtot      =    -65660.0954
 BOND   =         0.8262  ANGLE   =         5.2845  DIHED      =         1.0760
 1-4 NB =         0.2313  1-4 EEL =        26.6136  VDWAALS    =      9687.7625
 EELEC  =    -75381.8894  EHBOND  =         0.0000  RESTRAINT  =         0.0000
 EKCMT  =      6260.2722  VIRIAL  =      9610.5422  VOLUME     =    227169.8456
                                                    Density    =         0.9198
 DV/DL  =         0.3266
 ------------------------------------------------------------------------------

      R M S  F L U C T U A T I O N S

 NSTEP =     2000   TIME(PS) =     204.000  TEMP(K) =     1.96  PRESS =   135.8
 Etot   =        74.3552  EKtot   =        81.7531  EPtot      =        74.3746
 BOND   =         0.5895  ANGLE   =         1.8897  DIHED      =         0.6778
 1-4 NB =         0.2229  1-4 EEL =         0.6461  VDWAALS    =       121.1716
 EELEC  =       151.7581  EHBOND  =         0.0000  RESTRAINT  =         0.0000
 EKCMT  =        64.9770  VIRIAL  =       653.5324  VOLUME     =       802.2591
                                                    Density    =         0.0032
 DV/DL  =         3.3816
 ------------------------------------------------------------------------------

      DV/DL, AVERAGES OVER    1000 STEPS

 NSTEP =     2000   TIME(PS) =     204.000  TEMP(K) =     1.96  PRESS =     0.0
 Etot   =         0.0000  EKtot   =         0.0000  EPtot      =         0.3266
 BOND   =         0.0000  ANGLE   =         0.0000  DIHED      =         0.0000
 1-4 NB =         0.0000  1-4 EEL =       -27.9537  VDWAALS    =         0.0000
 EELEC  =        28.2803  EHBOND  =         0.0000  RESTRAINT  =         0.0000
 EKCMT  =         0.0000  VIRIAL  =         0.0000  VOLUME     =         0.0000
                                                    Density    =         0.0000
 DV/DL  =         0.3266
 ------------------------------------------------------------------------------

      A V E R A G E S   O V E R    1000 S T E P S

 NSTEP =   500000   TIME(PS) =    1200.000  TEMP(K) =   300.41  PRESS =   -47.8
 Etot   =    -54105.8895  EKtot   =     12510.8311  EPtot      =    -66616.7207
 BOND   =         0.9964  ANGLE   =         5.2664  DIHED      =         1.1892
 1-4 NB =         0.3810  1-4 EEL =        36.1505  VDWAALS    =      9941.1390
 EELEC  =    -76601.8431  EHBOND  =         0.0000  RESTRAINT  =         0.0000
 EKCMT  =      6252.9504  VIRIAL  =      6472.2261  VOLUME     =    212604.6602
                                                    Density    =         0.9828
 DV/DL  =         0.8012
 ------------------------------------------------------------------------------

      R M S  F L U C T U A T I O N S

 NSTEP =   500000   TIME(PS) =    1200.000  TEMP(K) =     1.67  PRESS =   158.3
 Etot   =        93.4426  EKtot   =        69.6836  EPtot      =        79.0223
 BOND   =         0.7675  ANGLE   =         1.8446  DIHED      =         0.7854
 1-4 NB =         0.2728  1-4 EEL =         2.7646  VDWAALS    =       143.5168
 EELEC  =       151.1334  EHBOND  =         0.0000  RESTRAINT  =         0.0000
 EKCMT  =        52.3209  VIRIAL  =       717.6885  VOLUME     =        77.7778
                                                    Density    =         0.0004
 DV/DL  =         3.3501
 ------------------------------------------------------------------------------

      A V E R A G E S   O V E R    1000 S T E P S

 NSTEP =   500000   TIME(PS) =    1200.000  TEMP(K) =   300.41  PRESS =   -47.8
 Etot   =    -54105.8895  EKtot   =     12510.8311  EPtot      =    -66616.7207
 BOND   =         0.9964  ANGLE   =         5.2664  DIHED      =         1.1892
 1-4 NB =         0.3810  1-4 EEL =        36.1505  VDWAALS    =      9941.1390
 EELEC  =    -76601.8431  EHBOND  =         0.0000  RESTRAINT  =         0.0000
 EKCMT  =      6252.9504  VIRIAL  =      6472.2261  VOLUME     =    212604.6602
                                                    Density    =         0.9828
 DV/DL  =         0.8012
 ------------------------------------------------------------------------------

      R M S  F L U C T U A T I O N S

 NSTEP =   500000   TIME(PS) =    1200.000  TEMP(K) =     1.67  PRESS =   158.3
 Etot   =        93.4426  EKtot   =        69.6836  EPtot      =        79.0223
 BOND   =         0.7675  ANGLE   =         1.8446  DIHED      =         0.7854
 1-4 NB =         0.2728  1-4 EEL =         2.7646  VDWAALS    =       143.5168
 EELEC  =       151.1334  EHBOND  =         0.0000  RESTRAINT  =         0.0000
 EKCMT  =        52.3209  VIRIAL  =       717.6885  VOLUME     =        77.7778
                                                    Density    =         0.0004
 DV/DL  =         3.3501
 ------------------------------------------------------------------------------

      DV/DL, AVERAGES OVER    1000 STEPS

 NSTEP =   500000   TIME(PS) =    1200.000  TEMP(K) =     1.67  PRESS =     0.0
 Etot   =         0.0000  EKtot   =         0.0000  EPtot      =         0.8012
 BOND   =         0.0000  ANGLE   =         0.0000  DIHED      =         0.0000
 1-4 NB =         0.0000  1-4 EEL =       -37.9709  VDWAALS    =         0.0000
 EELEC  =        38.7720  EHBOND  =         0.0000  RESTRAINT  =         0.0000
 EKCMT  =         0.0000  VIRIAL  =         0.0000  VOLUME     =         0.0000
                                                    Density    =         0.0000
 DV/DL  =         0.8012
 ------------------------------------------------------------------------------

      A V E R A G E S   O V E R  500000 S T E P S

 NSTEP =   500000   TIME(PS) =    1200.000  TEMP(K) =   299.97  PRESS =    -8.9
 Etot   =    -54091.2867  EKtot   =     12492.5748  EPtot      =    -66583.8615
 BOND   =         0.9411  ANGLE   =         4.9293  DIHED      =         1.1432
 1-4 NB =         0.3341  1-4 EEL =        31.4780  VDWAALS    =      9957.7952
 EELEC  =    -76580.4824  EHBOND  =         0.0000  RESTRAINT  =         0.0000
 EKCMT  =      6262.6593  VIRIAL  =      6305.5799  VOLUME     =    212711.4217
                                                    Density    =         0.9823
 DV/DL  =         0.1021
 ------------------------------------------------------------------------------

      R M S  F L U C T U A T I O N S

 NSTEP =   500000   TIME(PS) =    1200.000  TEMP(K) =     2.04  PRESS =   145.6
 Etot   =       169.0053  EKtot   =        84.9421  EPtot      =       146.5232
 BOND   =         0.7647  ANGLE   =         1.7350  DIHED      =         0.8033
 1-4 NB =         0.3481  1-4 EEL =         5.5524  VDWAALS    =       127.3502
 EELEC  =       224.3811  EHBOND  =         0.0000  RESTRAINT  =         0.0000
 EKCMT  =        60.2852  VIRIAL  =       677.0135  VOLUME     =      1360.5339
                                                    Density    =         0.0059
 DV/DL  =         3.7452
 ------------------------------------------------------------------------------

      A V E R A G E S   O V E R  500000 S T E P S

 NSTEP =   500000   TIME(PS) =    1200.000  TEMP(K) =   299.97  PRESS =    -8.9
 Etot   =    -54091.2867  EKtot   =     12492.5748  EPtot      =    -66583.8615
 BOND   =         0.9411  ANGLE   =         4.9293  DIHED      =         1.1432
 1-4 NB =         0.3341  1-4 EEL =        31.4780  VDWAALS    =      9957.7952
 EELEC  =    -76580.4824  EHBOND  =         0.0000  RESTRAINT  =         0.0000
 EKCMT  =      6262.6593  VIRIAL  =      6305.5799  VOLUME     =    212711.4217
                                                    Density    =         0.9823
 DV/DL  =         0.1021
 ------------------------------------------------------------------------------

      R M S  F L U C T U A T I O N S

 NSTEP =   500000   TIME(PS) =    1200.000  TEMP(K) =     2.04  PRESS =   145.6
 Etot   =       169.0053  EKtot   =        84.9421  EPtot      =       146.5232
 BOND   =         0.7647  ANGLE   =         1.7350  DIHED      =         0.8033
 1-4 NB =         0.3481  1-4 EEL =         5.5524  VDWAALS    =       127.3502
 EELEC  =       224.3811  EHBOND  =         0.0000  RESTRAINT  =         0.0000
 EKCMT  =        60.2852  VIRIAL  =       677.0135  VOLUME     =      1360.5339
                                                    Density    =         0.0059
 DV/DL  =         3.7452
 ------------------------------------------------------------------------------

      DV/DL, AVERAGES OVER  500000 STEPS

 NSTEP =   500000   TIME(PS) =    1200.000  TEMP(K) =     2.04  PRESS =     0.0
 Etot   =         0.0000  EKtot   =         0.0000  EPtot      =         0.1021
 BOND   =         0.0000  ANGLE   =         0.0000  DIHED      =         0.0000
 1-4 NB =         0.0000  1-4 EEL =       -33.0630  VDWAALS    =         0.0000
 EELEC  =        33.1651  EHBOND  =         0.0000  RESTRAINT  =         0.0000
 EKCMT  =         0.0000  VIRIAL  =         0.0000  VOLUME     =         0.0000
                                                    Density    =         0.0000
 DV/DL  =         0.1021
 ------------------------------------------------------------------------------
