-------------------------------------------------------
          Amber 18 PMEMD                              2018
          -------------------------------------------------------

  [-O]verwriting output

File Assignments:

 Here is the input file:

 &cntrl
   nstlim=500000, nscm=1000,
   ntx=5, irest=1, ntpr=1000,
   tempi=300.0, temp0=300.0, ntt=3, gamma_ln=2.0,
   ntp=1, pres0=1.01325, taup=5.0,
   ntb=2, igb=0, cut=10.0,
   dt=0.002, ig=-1,
   ntc=2, ntf=2,
   iwrap=0,
   ntwr=1000, ntwx=50000, ntave=1000,
   ioutfm=1, ntwv=-1,
   ifsc = 0, icfe=1,
   clambda=0.20634,
   timask1=':1',
   timask2=':2', crgmask = ':2',
/

Note: ig = -1. Setting random seed to   276100 based on wallclock time in
      microseconds.

--------------------------------------------------------------------------------
   1.  RESOURCE   USE:
--------------------------------------------------------------------------------

 getting box info from netcdf restart file
 NATOM  =      24 NTYPES =       6 NBONH =      16 MBONA  =       6
 NTHETH =      32 MTHETA =       4 NPHIH =      40 MPHIA  =       2
 NHPARM =       0 NPARM  =       0 NNB   =     102 NRES   =       2
 NBONA  =       6 NTHETA =       4 NPHIA =       2 NUMBND =       4
 NUMANG =       6 NPTRA  =       2 NATYP =       6 NPHB   =       1
 IFBOX  =       2 NMXRS  =      12 IFCAP =       0 NEXTRA =       0
 NCOPY  =       0

     BOX TYPE: TRUNCATED OCTAHEDRON

--------------------------------------------------------------------------------
   2.  CONTROL  DATA  FOR  THE  RUN
--------------------------------------------------------------------------------

default_name

General flags:
     imin    =       0, nmropt  =       0

Nature and format of input:
     ntx     =       5, irest   =       1, ntrx    =       1

Nature and format of output:
     ntxo    =       2, ntpr    =    1000, ntrx    =       1, ntwr    =    1000
     iwrap   =       0, ntwx    =   50000, ntwv    =      -1, ntwe    =       0
     ioutfm  =       1, ntwprt  =       0, idecomp =       0, rbornstat=      0

Potential function:
     ntf     =       2, ntb     =       2, igb     =       0, nsnb    =      25
     ipol    =       0, gbsa    =       0, iesp    =       0
     dielc   =   1.00000, cut     =  10.00000, intdiel =   1.00000

Frozen or restrained atoms:
     ibelly  =       0, ntr     =       0

Molecular dynamics:
     nstlim  =    500000, nscm    =      1000, nrespa  =         1
     t       =   0.00000, dt      =   0.00200, vlimit  =  -1.00000

Langevin dynamics temperature regulation:
     ig      =  276100
     temp0   = 300.00000, tempi   = 300.00000, gamma_ln=   2.00000

Pressure regulation:
     ntp     =       1
     pres0   =   1.01325, comp    =  44.60000, taup    =   5.00000

SHAKE:
     ntc     =       2, jfastw  =       0
     tol     =   0.00001

Free energy options:
     icfe    =       1, ifsc    =       0, klambda =       1
     clambda =  0.2063, scalpha =  0.5000, scbeta  = 12.0000
     sceeorder =       2
     dynlmb =  0.0000 logdvdl =       0

Ewald parameters:
     verbose =       0, ew_type =       0, nbflag  =       1, use_pme =       1
     vdwmeth =       1, eedmeth =       1, netfrc  =       1
     Box X =   67.054   Box Y =   67.054   Box Z =   67.054
     Alpha =  109.471   Beta  =  109.471   Gamma =  109.471
     NFFT1 =   64       NFFT2 =   64       NFFT3 =   64
     Cutoff=   10.000   Tol   =0.100E-04
     Ewald Coefficient =  0.27511
     Interpolation order =    4
     TI Mask 1 :1; matches     12 atoms
     TI Mask 2 :2; matches     12 atoms
     TI region 1:      12 atoms
     TI region 2:      12 atoms
Removing charge of      -0.6664 from atom      13
Removing charge of      -0.6664 from atom      14
Removing charge of      -0.0664 from atom      15
Removing charge of      -0.0664 from atom      16
Removing charge of       0.2792 from atom      17
Removing charge of       0.2802 from atom      18
Removing charge of       0.2802 from atom      19
Removing charge of       0.2792 from atom      20
Removing charge of       0.0898 from atom      21
Removing charge of       0.0837 from atom      22
Removing charge of       0.0898 from atom      23
Removing charge of       0.0837 from atom      24
Total charge of  -0.00000000 removed from      12 atoms
     Checking for mismatched coordinates.

--------------------------------------------------------------------------------
   3.  ATOMIC COORDINATES AND VELOCITIES
--------------------------------------------------------------------------------

default_name
 begin time read from input coords =   200.000 ps

 Number of triangulated 3-point waters found:        0

     Sum of charges for TI region  1 =  -0.00000000
     Forcing neutrality...

     Sum of charges for TI region  2 =   0.00000000
     Forcing neutrality...

--------------------------------------------------------------------------------
   4.  RESULTS
 NSTEP =     1000   TIME(PS) =     202.000  TEMP(K) =   260.99  PRESS =     0.6
 Etot   =        26.5953  EKtot   =         7.2610  EPtot      =        19.3343
 BOND   =         1.1853  ANGLE   =         6.0986  DIHED      =         0.8698
 1-4 NB =         0.1892  1-4 EEL =        23.4599  VDWAALS    =        -0.0478
 EELEC  =       -12.4208  EHBOND  =         0.0000  RESTRAINT  =         0.0000
 EKCMT  =         0.6294  VIRIAL  =        -2.1400  VOLUME     =    232082.3633
                                                    Density    =         0.0004
 DV/DL  =       -13.9092
 ------------------------------------------------------------------------------

      A V E R A G E S   O V E R    1000 S T E P S

 NSTEP =     1000   TIME(PS) =     202.000  TEMP(K) =   311.31  PRESS =     0.7
 Etot   =        27.5197  EKtot   =         8.6610  EPtot      =        18.8587
 BOND   =         0.9215  ANGLE   =         5.2717  DIHED      =         1.7747
 1-4 NB =         0.2071  1-4 EEL =        22.8095  VDWAALS    =        -0.0418
 EELEC  =       -12.0840  EHBOND  =         0.0000  RESTRAINT  =         0.0000
 EKCMT  =         1.5867  VIRIAL  =        -1.9522  VOLUME     =    232082.9349
                                                    Density    =         0.0004
 DV/DL  =       -13.5140
 ------------------------------------------------------------------------------

      R M S  F L U C T U A T I O N S

 NSTEP =     1000   TIME(PS) =     202.000  TEMP(K) =    63.44  PRESS =     0.3
 Etot   =         2.1320  EKtot   =         1.7651  EPtot      =         2.1301
 BOND   =         0.6682  ANGLE   =         1.4684  DIHED      =         1.4018
 1-4 NB =         0.2157  1-4 EEL =         0.6799  VDWAALS    =         0.0090
 EELEC  =         0.4847  EHBOND  =         0.0000  RESTRAINT  =         0.0000
 EKCMT  =         1.2135  VIRIAL  =         0.2576  VOLUME     =         0.4442
                                                    Density    =         0.0000
 DV/DL  =         0.4759
 ------------------------------------------------------------------------------

      A V E R A G E S   O V E R    1000 S T E P S

 NSTEP =     1000   TIME(PS) =     202.000  TEMP(K) =   311.31  PRESS =     0.7
 Etot   =        27.5197  EKtot   =         8.6610  EPtot      =        18.8587
 BOND   =         0.9215  ANGLE   =         5.2717  DIHED      =         1.7747
 1-4 NB =         0.2071  1-4 EEL =        22.8095  VDWAALS    =        -0.0418
 EELEC  =       -12.0840  EHBOND  =         0.0000  RESTRAINT  =         0.0000
 EKCMT  =         1.5867  VIRIAL  =        -1.9522  VOLUME     =    232082.9349
                                                    Density    =         0.0004
 DV/DL  =       -13.5140
 ------------------------------------------------------------------------------

      R M S  F L U C T U A T I O N S

 NSTEP =     1000   TIME(PS) =     202.000  TEMP(K) =    63.44  PRESS =     0.3
 Etot   =         2.1320  EKtot   =         1.7651  EPtot      =         2.1301
 BOND   =         0.6682  ANGLE   =         1.4684  DIHED      =         1.4018
 1-4 NB =         0.2157  1-4 EEL =         0.6799  VDWAALS    =         0.0090
 EELEC  =         0.4847  EHBOND  =         0.0000  RESTRAINT  =         0.0000
 EKCMT  =         1.2135  VIRIAL  =         0.2576  VOLUME     =         0.4442
                                                    Density    =         0.0000
 DV/DL  =         0.4759
 ------------------------------------------------------------------------------

      DV/DL, AVERAGES OVER    1000 STEPS

 NSTEP =     1000   TIME(PS) =     202.000  TEMP(K) =    63.44  PRESS =     0.0
 Etot   =         0.0000  EKtot   =         0.0000  EPtot      =       -13.5140
 BOND   =         0.0000  ANGLE   =         0.0000  DIHED      =         0.0000
 1-4 NB =         0.0000  1-4 EEL =       -28.7397  VDWAALS    =         0.0000
 EELEC  =        15.2257  EHBOND  =         0.0000  RESTRAINT  =         0.0000
 EKCMT  =         0.0000  VIRIAL  =         0.0000  VOLUME     =         0.0000
                                                    Density    =         0.0000
 DV/DL  =       -13.5140
 ------------------------------------------------------------------------------

      A V E R A G E S   O V E R    1000 S T E P S

 NSTEP =     2000   TIME(PS) =     204.000  TEMP(K) =   281.32  PRESS =     0.7
 Etot   =        25.4898  EKtot   =         7.8265  EPtot      =        17.6633
 BOND   =         0.8289  ANGLE   =         4.9744  DIHED      =         0.9342
 1-4 NB =         0.1966  1-4 EEL =        22.9744  VDWAALS    =        -0.0379
 EELEC  =       -12.2072  EHBOND  =         0.0000  RESTRAINT  =         0.0000
 EKCMT  =         1.5885  VIRIAL  =        -1.9971  VOLUME     =    232081.6746
                                                    Density    =         0.0004
 DV/DL  =       -13.5665
 ------------------------------------------------------------------------------

      R M S  F L U C T U A T I O N S

 NSTEP =     2000   TIME(PS) =     204.000  TEMP(K) =    76.15  PRESS =     0.3
 Etot   =         2.8109  EKtot   =         2.1185  EPtot      =         1.9411
 BOND   =         0.6310  ANGLE   =         1.6409  DIHED      =         0.5146
 1-4 NB =         0.1999  1-4 EEL =         0.5934  VDWAALS    =         0.0054
 EELEC  =         0.3573  EHBOND  =         0.0000  RESTRAINT  =         0.0000
 EKCMT  =         1.4752  VIRIAL  =         0.2502  VOLUME     =         0.4438
                                                    Density    =         0.0000
 DV/DL  =         0.5167
 ------------------------------------------------------------------------------

      A V E R A G E S   O V E R    1000 S T E P S

 NSTEP =     2000   TIME(PS) =     204.000  TEMP(K) =   281.32  PRESS =     0.7
 Etot   =        25.4898  EKtot   =         7.8265  EPtot      =        17.6633
 BOND   =         0.8289  ANGLE   =         4.9744  DIHED      =         0.9342
 1-4 NB =         0.1966  1-4 EEL =        22.9744  VDWAALS    =        -0.0379
 EELEC  =       -12.2072  EHBOND  =         0.0000  RESTRAINT  =         0.0000
 EKCMT  =         1.5885  VIRIAL  =        -1.9971  VOLUME     =    232081.6746
                                                    Density    =         0.0004
 DV/DL  =       -13.5665
 ------------------------------------------------------------------------------

      R M S  F L U C T U A T I O N S

 NSTEP =     2000   TIME(PS) =     204.000  TEMP(K) =    76.15  PRESS =     0.3
 Etot   =         2.8109  EKtot   =         2.1185  EPtot      =         1.9411
 BOND   =         0.6310  ANGLE   =         1.6409  DIHED      =         0.5146
 1-4 NB =         0.1999  1-4 EEL =         0.5934  VDWAALS    =         0.0054
 EELEC  =         0.3573  EHBOND  =         0.0000  RESTRAINT  =         0.0000
 EKCMT  =         1.4752  VIRIAL  =         0.2502  VOLUME     =         0.4438
                                                    Density    =         0.0000
 DV/DL  =         0.5167
 ------------------------------------------------------------------------------

      DV/DL, AVERAGES OVER    1000 STEPS

 NSTEP =     2000   TIME(PS) =     204.000  TEMP(K) =    76.15  PRESS =     0.0
 Etot   =         0.0000  EKtot   =         0.0000  EPtot      =       -13.5665
 BOND   =         0.0000  ANGLE   =         0.0000  DIHED      =         0.0000
 1-4 NB =         0.0000  1-4 EEL =       -28.9474  VDWAALS    =         0.0000
 EELEC  =        15.3809  EHBOND  =         0.0000  RESTRAINT  =         0.0000
 EKCMT  =         0.0000  VIRIAL  =         0.0000  VOLUME     =         0.0000
                                                    Density    =         0.0000
 DV/DL  =       -13.5665
 ------------------------------------------------------------------------------

      A V E R A G E S   O V E R    1000 S T E P S

 NSTEP =   500000   TIME(PS) =    1200.000  TEMP(K) =   304.62  PRESS =     0.5
 Etot   =        26.8734  EKtot   =         8.4747  EPtot      =        18.3986
 BOND   =         0.9652  ANGLE   =         5.2821  DIHED      =         1.7001
 1-4 NB =         0.5081  1-4 EEL =        31.0072  VDWAALS    =        -0.1296
 EELEC  =       -20.9344  EHBOND  =         0.0000  RESTRAINT  =         0.0000
 EKCMT  =         0.8644  VIRIAL  =        -1.8344  VOLUME     =    231476.1531
                                                    Density    =         0.0004
 DV/DL  =       -12.6915
 ------------------------------------------------------------------------------

      R M S  F L U C T U A T I O N S

 NSTEP =   500000   TIME(PS) =    1200.000  TEMP(K) =    67.70  PRESS =     0.2
 Etot   =         2.2665  EKtot   =         1.8835  EPtot      =         2.0803
 BOND   =         0.7654  ANGLE   =         1.5981  DIHED      =         1.1134
 1-4 NB =         0.5333  1-4 EEL =         1.4342  VDWAALS    =         0.0380
 EELEC  =         1.4806  EHBOND  =         0.0000  RESTRAINT  =         0.0000
 EKCMT  =         0.5164  VIRIAL  =         0.7139  VOLUME     =         0.6160
                                                    Density    =         0.0000
 DV/DL  =         0.4122
 ------------------------------------------------------------------------------

      A V E R A G E S   O V E R    1000 S T E P S

 NSTEP =   500000   TIME(PS) =    1200.000  TEMP(K) =   304.62  PRESS =     0.5
 Etot   =        26.8734  EKtot   =         8.4747  EPtot      =        18.3986
 BOND   =         0.9652  ANGLE   =         5.2821  DIHED      =         1.7001
 1-4 NB =         0.5081  1-4 EEL =        31.0072  VDWAALS    =        -0.1296
 EELEC  =       -20.9344  EHBOND  =         0.0000  RESTRAINT  =         0.0000
 EKCMT  =         0.8644  VIRIAL  =        -1.8344  VOLUME     =    231476.1531
                                                    Density    =         0.0004
 DV/DL  =       -12.6915
 ------------------------------------------------------------------------------

      R M S  F L U C T U A T I O N S

 NSTEP =   500000   TIME(PS) =    1200.000  TEMP(K) =    67.70  PRESS =     0.2
 Etot   =         2.2665  EKtot   =         1.8835  EPtot      =         2.0803
 BOND   =         0.7654  ANGLE   =         1.5981  DIHED      =         1.1134
 1-4 NB =         0.5333  1-4 EEL =         1.4342  VDWAALS    =         0.0380
 EELEC  =         1.4806  EHBOND  =         0.0000  RESTRAINT  =         0.0000
 EKCMT  =         0.5164  VIRIAL  =         0.7139  VOLUME     =         0.6160
                                                    Density    =         0.0000
 DV/DL  =         0.4122
 ------------------------------------------------------------------------------

      DV/DL, AVERAGES OVER    1000 STEPS

 NSTEP =   500000   TIME(PS) =    1200.000  TEMP(K) =    67.70  PRESS =     0.0
 Etot   =         0.0000  EKtot   =         0.0000  EPtot      =       -12.6915
 BOND   =         0.0000  ANGLE   =         0.0000  DIHED      =         0.0000
 1-4 NB =         0.0000  1-4 EEL =       -39.0686  VDWAALS    =         0.0000
 EELEC  =        26.3771  EHBOND  =         0.0000  RESTRAINT  =         0.0000
 EKCMT  =         0.0000  VIRIAL  =         0.0000  VOLUME     =         0.0000
                                                    Density    =         0.0000
 DV/DL  =       -12.6915
 ------------------------------------------------------------------------------

      A V E R A G E S   O V E R  500000 S T E P S

 NSTEP =   500000   TIME(PS) =    1200.000  TEMP(K) =   301.20  PRESS =     0.7
 Etot   =        25.9712  EKtot   =         8.3797  EPtot      =        17.5915
 BOND   =         0.9636  ANGLE   =         4.9077  DIHED      =         1.1451
 1-4 NB =         0.4770  1-4 EEL =        29.2924  VDWAALS    =        -0.0907
 EELEC  =       -19.1036  EHBOND  =         0.0000  RESTRAINT  =         0.0000
 EKCMT  =         1.7442  VIRIAL  =        -1.8533  VOLUME     =    231772.0000
                                                    Density    =         0.0004
 DV/DL  =       -12.8377
 ------------------------------------------------------------------------------

      R M S  F L U C T U A T I O N S

 NSTEP =   500000   TIME(PS) =    1200.000  TEMP(K) =    79.30  PRESS =     0.3
 Etot   =         3.0369  EKtot   =         2.2063  EPtot      =         2.1418
 BOND   =         0.7848  ANGLE   =         1.7021  DIHED      =         0.8224
 1-4 NB =         0.4550  1-4 EEL =         4.4975  VDWAALS    =         0.0383
 EELEC  =         4.7416  EHBOND  =         0.0000  RESTRAINT  =         0.0000
 EKCMT  =         1.4587  VIRIAL  =         0.5682  VOLUME     =       176.7785
                                                    Density    =         0.0000
 DV/DL  =         0.6882
 ------------------------------------------------------------------------------

      A V E R A G E S   O V E R  500000 S T E P S

 NSTEP =   500000   TIME(PS) =    1200.000  TEMP(K) =   301.20  PRESS =     0.7
 Etot   =        25.9712  EKtot   =         8.3797  EPtot      =        17.5915
 BOND   =         0.9636  ANGLE   =         4.9077  DIHED      =         1.1451
 1-4 NB =         0.4770  1-4 EEL =        29.2924  VDWAALS    =        -0.0907
 EELEC  =       -19.1036  EHBOND  =         0.0000  RESTRAINT  =         0.0000
 EKCMT  =         1.7442  VIRIAL  =        -1.8533  VOLUME     =    231772.0000
                                                    Density    =         0.0004
 DV/DL  =       -12.8377
 ------------------------------------------------------------------------------

      R M S  F L U C T U A T I O N S

 NSTEP =   500000   TIME(PS) =    1200.000  TEMP(K) =    79.30  PRESS =     0.3
 Etot   =         3.0369  EKtot   =         2.2063  EPtot      =         2.1418
 BOND   =         0.7848  ANGLE   =         1.7021  DIHED      =         0.8224
 1-4 NB =         0.4550  1-4 EEL =         4.4975  VDWAALS    =         0.0383
 EELEC  =         4.7416  EHBOND  =         0.0000  RESTRAINT  =         0.0000
 EKCMT  =         1.4587  VIRIAL  =         0.5682  VOLUME     =       176.7785
                                                    Density    =         0.0000
 DV/DL  =         0.6882
 ------------------------------------------------------------------------------

      DV/DL, AVERAGES OVER  500000 STEPS

 NSTEP =   500000   TIME(PS) =    1200.000  TEMP(K) =    79.30  PRESS =     0.0
 Etot   =         0.0000  EKtot   =         0.0000  EPtot      =       -12.8377
 BOND   =         0.0000  ANGLE   =         0.0000  DIHED      =         0.0000
 1-4 NB =         0.0000  1-4 EEL =       -36.9080  VDWAALS    =         0.0000
 EELEC  =        24.0703  EHBOND  =         0.0000  RESTRAINT  =         0.0000
 EKCMT  =         0.0000  VIRIAL  =         0.0000  VOLUME     =         0.0000
                                                    Density    =         0.0000
 DV/DL  =       -12.8377
 ------------------------------------------------------------------------------
