-------------------------------------------------------
          Amber 18 PMEMD                              2018
          -------------------------------------------------------

  [-O]verwriting output

File Assignments:

 Here is the input file:

 &cntrl
   nstlim=500000, nscm=1000,
   ntx=5, irest=1, ntpr=1000,
   tempi=300.0, temp0=300.0, ntt=3, gamma_ln=2.0,
   ntp=1, pres0=1.01325, taup=5.0,
   ntb=2, igb=0, cut=10.0,
   dt=0.002, ig=-1,
   ntc=2, ntf=2,
   iwrap=0,
   ntwr=1000, ntwx=50000, ntave=1000,
   ioutfm=1, ntwv=-1,
   ifsc = 0, icfe=1,
   clambda=0.00922,
   timask1=':1',
   timask2=':2', crgmask = ':2',
/

Note: ig = -1. Setting random seed to      236 based on wallclock time in
      microseconds.

--------------------------------------------------------------------------------
   1.  RESOURCE   USE:
--------------------------------------------------------------------------------

 getting box info from netcdf restart file
 NATOM  =   20967 NTYPES =       6 NBONH =   20959 MBONA  =       6
 NTHETH =      32 MTHETA =       4 NPHIH =      40 MPHIA  =       2
 NHPARM =       0 NPARM  =       0 NNB   =   28026 NRES   =    6983
 NBONA  =       6 NTHETA =       4 NPHIA =       2 NUMBND =       6
 NUMANG =       6 NPTRA  =       2 NATYP =       6 NPHB   =       1
 IFBOX  =       2 NMXRS  =      12 IFCAP =       0 NEXTRA =       0
 NCOPY  =       0

     BOX TYPE: TRUNCATED OCTAHEDRON

--------------------------------------------------------------------------------
   2.  CONTROL  DATA  FOR  THE  RUN
--------------------------------------------------------------------------------

default_name

General flags:
     imin    =       0, nmropt  =       0

Nature and format of input:
     ntx     =       5, irest   =       1, ntrx    =       1

Nature and format of output:
     ntxo    =       2, ntpr    =    1000, ntrx    =       1, ntwr    =    1000
     iwrap   =       0, ntwx    =   50000, ntwv    =      -1, ntwe    =       0
     ioutfm  =       1, ntwprt  =       0, idecomp =       0, rbornstat=      0

Potential function:
     ntf     =       2, ntb     =       2, igb     =       0, nsnb    =      25
     ipol    =       0, gbsa    =       0, iesp    =       0
     dielc   =   1.00000, cut     =  10.00000, intdiel =   1.00000

Frozen or restrained atoms:
     ibelly  =       0, ntr     =       0

Molecular dynamics:
     nstlim  =    500000, nscm    =      1000, nrespa  =         1
     t       =   0.00000, dt      =   0.00200, vlimit  =  -1.00000

Langevin dynamics temperature regulation:
     ig      =     236
     temp0   = 300.00000, tempi   = 300.00000, gamma_ln=   2.00000

Pressure regulation:
     ntp     =       1
     pres0   =   1.01325, comp    =  44.60000, taup    =   5.00000

SHAKE:
     ntc     =       2, jfastw  =       0
     tol     =   0.00001

Free energy options:
     icfe    =       1, ifsc    =       0, klambda =       1
     clambda =  0.0092, scalpha =  0.5000, scbeta  = 12.0000
     sceeorder =       2
     dynlmb =  0.0000 logdvdl =       0

Ewald parameters:
     verbose =       0, ew_type =       0, nbflag  =       1, use_pme =       1
     vdwmeth =       1, eedmeth =       1, netfrc  =       1
     Box X =   67.054   Box Y =   67.054   Box Z =   67.054
     Alpha =  109.471   Beta  =  109.471   Gamma =  109.471
     NFFT1 =   64       NFFT2 =   64       NFFT3 =   64
     Cutoff=   10.000   Tol   =0.100E-04
     Ewald Coefficient =  0.27511
     Interpolation order =    4
     TI Mask 1 :1; matches     12 atoms
     TI Mask 2 :2; matches     12 atoms
     TI region 1:   20955 atoms
     TI region 2:   20955 atoms
Removing charge of      -0.6664 from atom      13
Removing charge of      -0.6664 from atom      14
Removing charge of      -0.0664 from atom      15
Removing charge of      -0.0664 from atom      16
Removing charge of       0.2792 from atom      17
Removing charge of       0.2802 from atom      18
Removing charge of       0.2802 from atom      19
Removing charge of       0.2792 from atom      20
Removing charge of       0.0898 from atom      21
Removing charge of       0.0837 from atom      22
Removing charge of       0.0898 from atom      23
Removing charge of       0.0837 from atom      24
Total charge of  -0.00000000 removed from      12 atoms
     Checking for mismatched coordinates.

--------------------------------------------------------------------------------
   3.  ATOMIC COORDINATES AND VELOCITIES
--------------------------------------------------------------------------------

default_name
 begin time read from input coords =   200.000 ps

 Number of triangulated 3-point waters found:     6981

     Sum of charges for TI region  1 =  -0.00000000
     Forcing neutrality...

     Sum of charges for TI region  2 =   0.00000000
     Forcing neutrality...

--------------------------------------------------------------------------------
   4.  RESULTS
 NSTEP =     1000   TIME(PS) =     202.000  TEMP(K) =   299.13  PRESS =  -727.6
 Etot   =    -52781.1904  EKtot   =     12457.4920  EPtot      =    -65238.6824
 BOND   =         0.5465  ANGLE   =         5.1524  DIHED      =         1.0135
 1-4 NB =         0.2708  1-4 EEL =        28.0973  VDWAALS    =      9508.7153
 EELEC  =    -74782.4780  EHBOND  =         0.0000  RESTRAINT  =         0.0000
 EKCMT  =      6268.1496  VIRIAL  =      9857.9788  VOLUME     =    228501.8419
                                                    Density    =         0.9144
 DV/DL  =        -1.8595
 ------------------------------------------------------------------------------

      A V E R A G E S   O V E R    1000 S T E P S

 NSTEP =     1000   TIME(PS) =     202.000  TEMP(K) =   300.72  PRESS =  -871.5
 Etot   =    -52786.4115  EKtot   =     12523.5202  EPtot      =    -65309.9317
 BOND   =         0.8579  ANGLE   =         4.6365  DIHED      =         1.2579
 1-4 NB =         0.1874  1-4 EEL =        27.8128  VDWAALS    =      9467.9669
 EELEC  =    -74812.6511  EHBOND  =         0.0000  RESTRAINT  =         0.0000
 EKCMT  =      6277.2043  VIRIAL  =     10610.7027  VOLUME     =    230255.8249
                                                    Density    =         0.9075
 DV/DL  =         1.1721
 ------------------------------------------------------------------------------

      R M S  F L U C T U A T I O N S

 NSTEP =     1000   TIME(PS) =     202.000  TEMP(K) =     1.68  PRESS =    88.2
 Etot   =       118.7202  EKtot   =        70.0393  EPtot      =       122.2000
 BOND   =         0.6821  ANGLE   =         1.3879  DIHED      =         0.8921
 1-4 NB =         0.1601  1-4 EEL =         0.5538  VDWAALS    =        91.3812
 EELEC  =       173.9027  EHBOND  =         0.0000  RESTRAINT  =         0.0000
 EKCMT  =        50.7237  VIRIAL  =       457.1602  VOLUME     =      1034.9958
                                                    Density    =         0.0041
 DV/DL  =         2.5490
 ------------------------------------------------------------------------------

      A V E R A G E S   O V E R    1000 S T E P S

 NSTEP =     1000   TIME(PS) =     202.000  TEMP(K) =   300.72  PRESS =  -871.5
 Etot   =    -52786.4115  EKtot   =     12523.5202  EPtot      =    -65309.9317
 BOND   =         0.8579  ANGLE   =         4.6365  DIHED      =         1.2579
 1-4 NB =         0.1874  1-4 EEL =        27.8128  VDWAALS    =      9467.9669
 EELEC  =    -74812.6511  EHBOND  =         0.0000  RESTRAINT  =         0.0000
 EKCMT  =      6277.2043  VIRIAL  =     10610.7027  VOLUME     =    230255.8249
                                                    Density    =         0.9075
 DV/DL  =         1.1721
 ------------------------------------------------------------------------------

      R M S  F L U C T U A T I O N S

 NSTEP =     1000   TIME(PS) =     202.000  TEMP(K) =     1.68  PRESS =    88.2
 Etot   =       118.7202  EKtot   =        70.0393  EPtot      =       122.2000
 BOND   =         0.6821  ANGLE   =         1.3879  DIHED      =         0.8921
 1-4 NB =         0.1601  1-4 EEL =         0.5538  VDWAALS    =        91.3812
 EELEC  =       173.9027  EHBOND  =         0.0000  RESTRAINT  =         0.0000
 EKCMT  =        50.7237  VIRIAL  =       457.1602  VOLUME     =      1034.9958
                                                    Density    =         0.0041
 DV/DL  =         2.5490
 ------------------------------------------------------------------------------

      DV/DL, AVERAGES OVER    1000 STEPS

 NSTEP =     1000   TIME(PS) =     202.000  TEMP(K) =     1.68  PRESS =     0.0
 Etot   =         0.0000  EKtot   =         0.0000  EPtot      =         1.1721
 BOND   =         0.0000  ANGLE   =         0.0000  DIHED      =         0.0000
 1-4 NB =         0.0000  1-4 EEL =       -28.0717  VDWAALS    =         0.0000
 EELEC  =        29.2438  EHBOND  =         0.0000  RESTRAINT  =         0.0000
 EKCMT  =         0.0000  VIRIAL  =         0.0000  VOLUME     =         0.0000
                                                    Density    =         0.0000
 DV/DL  =         1.1721
 ------------------------------------------------------------------------------

      A V E R A G E S   O V E R    1000 S T E P S

 NSTEP =     2000   TIME(PS) =     204.000  TEMP(K) =   301.02  PRESS =  -682.7
 Etot   =    -53042.7326  EKtot   =     12536.3016  EPtot      =    -65579.0341
 BOND   =         0.9573  ANGLE   =         4.6321  DIHED      =         0.9897
 1-4 NB =         0.1719  1-4 EEL =        27.5884  VDWAALS    =      9619.4668
 EELEC  =    -75232.8403  EHBOND  =         0.0000  RESTRAINT  =         0.0000
 EKCMT  =      6292.6086  VIRIAL  =      9640.5480  VOLUME     =    227098.7151
                                                    Density    =         0.9201
 DV/DL  =        -3.2640
 ------------------------------------------------------------------------------

      R M S  F L U C T U A T I O N S

 NSTEP =     2000   TIME(PS) =     204.000  TEMP(K) =     1.89  PRESS =   105.9
 Etot   =       133.1782  EKtot   =        78.5525  EPtot      =       129.4024
 BOND   =         0.7959  ANGLE   =         1.4567  DIHED      =         0.6484
 1-4 NB =         0.1787  1-4 EEL =         0.6485  VDWAALS    =       105.8166
 EELEC  =       182.9397  EHBOND  =         0.0000  RESTRAINT  =         0.0000
 EKCMT  =        49.1217  VIRIAL  =       512.5156  VOLUME     =       808.5715
                                                    Density    =         0.0033
 DV/DL  =         2.8996
 ------------------------------------------------------------------------------

      A V E R A G E S   O V E R    1000 S T E P S

 NSTEP =     2000   TIME(PS) =     204.000  TEMP(K) =   301.02  PRESS =  -682.7
 Etot   =    -53042.7326  EKtot   =     12536.3016  EPtot      =    -65579.0341
 BOND   =         0.9573  ANGLE   =         4.6321  DIHED      =         0.9897
 1-4 NB =         0.1719  1-4 EEL =        27.5884  VDWAALS    =      9619.4668
 EELEC  =    -75232.8403  EHBOND  =         0.0000  RESTRAINT  =         0.0000
 EKCMT  =      6292.6086  VIRIAL  =      9640.5480  VOLUME     =    227098.7151
                                                    Density    =         0.9201
 DV/DL  =        -3.2640
 ------------------------------------------------------------------------------

      R M S  F L U C T U A T I O N S

 NSTEP =     2000   TIME(PS) =     204.000  TEMP(K) =     1.89  PRESS =   105.9
 Etot   =       133.1782  EKtot   =        78.5525  EPtot      =       129.4024
 BOND   =         0.7959  ANGLE   =         1.4567  DIHED      =         0.6484
 1-4 NB =         0.1787  1-4 EEL =         0.6485  VDWAALS    =       105.8166
 EELEC  =       182.9397  EHBOND  =         0.0000  RESTRAINT  =         0.0000
 EKCMT  =        49.1217  VIRIAL  =       512.5156  VOLUME     =       808.5715
                                                    Density    =         0.0033
 DV/DL  =         2.8996
 ------------------------------------------------------------------------------

      DV/DL, AVERAGES OVER    1000 STEPS

 NSTEP =     2000   TIME(PS) =     204.000  TEMP(K) =     1.89  PRESS =     0.0
 Etot   =         0.0000  EKtot   =         0.0000  EPtot      =        -3.2640
 BOND   =         0.0000  ANGLE   =         0.0000  DIHED      =         0.0000
 1-4 NB =         0.0000  1-4 EEL =       -27.8451  VDWAALS    =         0.0000
 EELEC  =        24.5811  EHBOND  =         0.0000  RESTRAINT  =         0.0000
 EKCMT  =         0.0000  VIRIAL  =         0.0000  VOLUME     =         0.0000
                                                    Density    =         0.0000
 DV/DL  =        -3.2640
 ------------------------------------------------------------------------------

      A V E R A G E S   O V E R    1000 S T E P S

 NSTEP =   500000   TIME(PS) =    1200.000  TEMP(K) =   299.50  PRESS =   -33.4
 Etot   =    -54046.8705  EKtot   =     12472.7734  EPtot      =    -66519.6439
 BOND   =         0.7807  ANGLE   =         3.7237  DIHED      =         1.0149
 1-4 NB =         0.4733  1-4 EEL =        38.5003  VDWAALS    =      9895.8397
 EELEC  =    -76459.9765  EHBOND  =         0.0000  RESTRAINT  =         0.0000
 EKCMT  =      6240.5210  VIRIAL  =      6393.8549  VOLUME     =    212556.1446
                                                    Density    =         0.9830
 DV/DL  =         3.0416
 ------------------------------------------------------------------------------

      R M S  F L U C T U A T I O N S

 NSTEP =   500000   TIME(PS) =    1200.000  TEMP(K) =     2.15  PRESS =   119.3
 Etot   =       136.3122  EKtot   =        89.4311  EPtot      =        91.1442
 BOND   =         0.6018  ANGLE   =         1.1697  DIHED      =         0.5874
 1-4 NB =         0.3702  1-4 EEL =         2.2120  VDWAALS    =       118.4788
 EELEC  =       160.7777  EHBOND  =         0.0000  RESTRAINT  =         0.0000
 EKCMT  =        52.3167  VIRIAL  =       559.7222  VOLUME     =        44.7603
                                                    Density    =         0.0002
 DV/DL  =         2.8847
 ------------------------------------------------------------------------------

      A V E R A G E S   O V E R    1000 S T E P S

 NSTEP =   500000   TIME(PS) =    1200.000  TEMP(K) =   299.50  PRESS =   -33.4
 Etot   =    -54046.8705  EKtot   =     12472.7734  EPtot      =    -66519.6439
 BOND   =         0.7807  ANGLE   =         3.7237  DIHED      =         1.0149
 1-4 NB =         0.4733  1-4 EEL =        38.5003  VDWAALS    =      9895.8397
 EELEC  =    -76459.9765  EHBOND  =         0.0000  RESTRAINT  =         0.0000
 EKCMT  =      6240.5210  VIRIAL  =      6393.8549  VOLUME     =    212556.1446
                                                    Density    =         0.9830
 DV/DL  =         3.0416
 ------------------------------------------------------------------------------

      R M S  F L U C T U A T I O N S

 NSTEP =   500000   TIME(PS) =    1200.000  TEMP(K) =     2.15  PRESS =   119.3
 Etot   =       136.3122  EKtot   =        89.4311  EPtot      =        91.1442
 BOND   =         0.6018  ANGLE   =         1.1697  DIHED      =         0.5874
 1-4 NB =         0.3702  1-4 EEL =         2.2120  VDWAALS    =       118.4788
 EELEC  =       160.7777  EHBOND  =         0.0000  RESTRAINT  =         0.0000
 EKCMT  =        52.3167  VIRIAL  =       559.7222  VOLUME     =        44.7603
                                                    Density    =         0.0002
 DV/DL  =         2.8847
 ------------------------------------------------------------------------------

      DV/DL, AVERAGES OVER    1000 STEPS

 NSTEP =   500000   TIME(PS) =    1200.000  TEMP(K) =     2.15  PRESS =     0.0
 Etot   =         0.0000  EKtot   =         0.0000  EPtot      =         3.0416
 BOND   =         0.0000  ANGLE   =         0.0000  DIHED      =         0.0000
 1-4 NB =         0.0000  1-4 EEL =       -38.8586  VDWAALS    =         0.0000
 EELEC  =        41.9002  EHBOND  =         0.0000  RESTRAINT  =         0.0000
 EKCMT  =         0.0000  VIRIAL  =         0.0000  VOLUME     =         0.0000
                                                    Density    =         0.0000
 DV/DL  =         3.0416
 ------------------------------------------------------------------------------

      A V E R A G E S   O V E R  500000 S T E P S

 NSTEP =   500000   TIME(PS) =    1200.000  TEMP(K) =   300.00  PRESS =    -8.9
 Etot   =    -54089.4877  EKtot   =     12493.6770  EPtot      =    -66583.1646
 BOND   =         0.9338  ANGLE   =         4.8658  DIHED      =         1.1372
 1-4 NB =         0.3468  1-4 EEL =        32.9692  VDWAALS    =      9956.8121
 EELEC  =    -76580.2294  EHBOND  =         0.0000  RESTRAINT  =         0.0000
 EKCMT  =      6264.7699  VIRIAL  =      6307.5510  VOLUME     =    212688.8885
                                                    Density    =         0.9825
 DV/DL  =         0.7274
 ------------------------------------------------------------------------------

      R M S  F L U C T U A T I O N S

 NSTEP =   500000   TIME(PS) =    1200.000  TEMP(K) =     2.09  PRESS =   146.3
 Etot   =       181.1713  EKtot   =        86.9451  EPtot      =       155.3216
 BOND   =         0.7630  ANGLE   =         1.7116  DIHED      =         0.7907
 1-4 NB =         0.3561  1-4 EEL =         5.8915  VDWAALS    =       129.4783
 EELEC  =       236.1528  EHBOND  =         0.0000  RESTRAINT  =         0.0000
 EKCMT  =        61.4221  VIRIAL  =       680.4053  VOLUME     =      1365.5902
                                                    Density    =         0.0060
 DV/DL  =         3.7361
 ------------------------------------------------------------------------------

      A V E R A G E S   O V E R  500000 S T E P S

 NSTEP =   500000   TIME(PS) =    1200.000  TEMP(K) =   300.00  PRESS =    -8.9
 Etot   =    -54089.4877  EKtot   =     12493.6770  EPtot      =    -66583.1646
 BOND   =         0.9338  ANGLE   =         4.8658  DIHED      =         1.1372
 1-4 NB =         0.3468  1-4 EEL =        32.9692  VDWAALS    =      9956.8121
 EELEC  =    -76580.2294  EHBOND  =         0.0000  RESTRAINT  =         0.0000
 EKCMT  =      6264.7699  VIRIAL  =      6307.5510  VOLUME     =    212688.8885
                                                    Density    =         0.9825
 DV/DL  =         0.7274
 ------------------------------------------------------------------------------

      R M S  F L U C T U A T I O N S

 NSTEP =   500000   TIME(PS) =    1200.000  TEMP(K) =     2.09  PRESS =   146.3
 Etot   =       181.1713  EKtot   =        86.9451  EPtot      =       155.3216
 BOND   =         0.7630  ANGLE   =         1.7116  DIHED      =         0.7907
 1-4 NB =         0.3561  1-4 EEL =         5.8915  VDWAALS    =       129.4783
 EELEC  =       236.1528  EHBOND  =         0.0000  RESTRAINT  =         0.0000
 EKCMT  =        61.4221  VIRIAL  =       680.4053  VOLUME     =      1365.5902
                                                    Density    =         0.0060
 DV/DL  =         3.7361
 ------------------------------------------------------------------------------

      DV/DL, AVERAGES OVER  500000 STEPS

 NSTEP =   500000   TIME(PS) =    1200.000  TEMP(K) =     2.09  PRESS =     0.0
 Etot   =         0.0000  EKtot   =         0.0000  EPtot      =         0.7274
 BOND   =         0.0000  ANGLE   =         0.0000  DIHED      =         0.0000
 1-4 NB =         0.0000  1-4 EEL =       -33.2760  VDWAALS    =         0.0000
 EELEC  =        34.0033  EHBOND  =         0.0000  RESTRAINT  =         0.0000
 EKCMT  =         0.0000  VIRIAL  =         0.0000  VOLUME     =         0.0000
                                                    Density    =         0.0000
 DV/DL  =         0.7274
 ------------------------------------------------------------------------------
