-------------------------------------------------------
          Amber 18 PMEMD                              2018
          -------------------------------------------------------

  [-O]verwriting output

File Assignments:

 Here is the input file:

 &cntrl
   nstlim=500000, nscm=1000,
   ntx=5, irest=1, ntpr=1000,
   tempi=300.0, temp0=300.0, ntt=3, gamma_ln=2.0,
   ntp=1, pres0=1.01325, taup=5.0,
   ntb=2, igb=0, cut=10.0,
   dt=0.002, ig=-1,
   ntc=2, ntf=2,
   iwrap=0,
   ntwr=1000, ntwx=50000, ntave=1000,
   ioutfm=1, ntwv=-1,
   ifsc = 0, icfe=1,
   clambda=0.43738,
   timask1=':1',
   timask2=':2', crgmask = ':2',
/

Note: ig = -1. Setting random seed to   246784 based on wallclock time in
      microseconds.

--------------------------------------------------------------------------------
   1.  RESOURCE   USE:
--------------------------------------------------------------------------------

 getting box info from netcdf restart file
 NATOM  =      24 NTYPES =       6 NBONH =      16 MBONA  =       6
 NTHETH =      32 MTHETA =       4 NPHIH =      40 MPHIA  =       2
 NHPARM =       0 NPARM  =       0 NNB   =     102 NRES   =       2
 NBONA  =       6 NTHETA =       4 NPHIA =       2 NUMBND =       4
 NUMANG =       6 NPTRA  =       2 NATYP =       6 NPHB   =       1
 IFBOX  =       2 NMXRS  =      12 IFCAP =       0 NEXTRA =       0
 NCOPY  =       0

     BOX TYPE: TRUNCATED OCTAHEDRON

--------------------------------------------------------------------------------
   2.  CONTROL  DATA  FOR  THE  RUN
--------------------------------------------------------------------------------

default_name

General flags:
     imin    =       0, nmropt  =       0

Nature and format of input:
     ntx     =       5, irest   =       1, ntrx    =       1

Nature and format of output:
     ntxo    =       2, ntpr    =    1000, ntrx    =       1, ntwr    =    1000
     iwrap   =       0, ntwx    =   50000, ntwv    =      -1, ntwe    =       0
     ioutfm  =       1, ntwprt  =       0, idecomp =       0, rbornstat=      0

Potential function:
     ntf     =       2, ntb     =       2, igb     =       0, nsnb    =      25
     ipol    =       0, gbsa    =       0, iesp    =       0
     dielc   =   1.00000, cut     =  10.00000, intdiel =   1.00000

Frozen or restrained atoms:
     ibelly  =       0, ntr     =       0

Molecular dynamics:
     nstlim  =    500000, nscm    =      1000, nrespa  =         1
     t       =   0.00000, dt      =   0.00200, vlimit  =  -1.00000

Langevin dynamics temperature regulation:
     ig      =  246784
     temp0   = 300.00000, tempi   = 300.00000, gamma_ln=   2.00000

Pressure regulation:
     ntp     =       1
     pres0   =   1.01325, comp    =  44.60000, taup    =   5.00000

SHAKE:
     ntc     =       2, jfastw  =       0
     tol     =   0.00001

Free energy options:
     icfe    =       1, ifsc    =       0, klambda =       1
     clambda =  0.4374, scalpha =  0.5000, scbeta  = 12.0000
     sceeorder =       2
     dynlmb =  0.0000 logdvdl =       0

Ewald parameters:
     verbose =       0, ew_type =       0, nbflag  =       1, use_pme =       1
     vdwmeth =       1, eedmeth =       1, netfrc  =       1
     Box X =   67.054   Box Y =   67.054   Box Z =   67.054
     Alpha =  109.471   Beta  =  109.471   Gamma =  109.471
     NFFT1 =   64       NFFT2 =   64       NFFT3 =   64
     Cutoff=   10.000   Tol   =0.100E-04
     Ewald Coefficient =  0.27511
     Interpolation order =    4
     TI Mask 1 :1; matches     12 atoms
     TI Mask 2 :2; matches     12 atoms
     TI region 1:      12 atoms
     TI region 2:      12 atoms
Removing charge of      -0.6664 from atom      13
Removing charge of      -0.6664 from atom      14
Removing charge of      -0.0664 from atom      15
Removing charge of      -0.0664 from atom      16
Removing charge of       0.2792 from atom      17
Removing charge of       0.2802 from atom      18
Removing charge of       0.2802 from atom      19
Removing charge of       0.2792 from atom      20
Removing charge of       0.0898 from atom      21
Removing charge of       0.0837 from atom      22
Removing charge of       0.0898 from atom      23
Removing charge of       0.0837 from atom      24
Total charge of  -0.00000000 removed from      12 atoms
     Checking for mismatched coordinates.

--------------------------------------------------------------------------------
   3.  ATOMIC COORDINATES AND VELOCITIES
--------------------------------------------------------------------------------

default_name
 begin time read from input coords =   200.000 ps

 Number of triangulated 3-point waters found:        0

     Sum of charges for TI region  1 =  -0.00000000
     Forcing neutrality...

     Sum of charges for TI region  2 =   0.00000000
     Forcing neutrality...

--------------------------------------------------------------------------------
   4.  RESULTS
 NSTEP =     1000   TIME(PS) =     202.000  TEMP(K) =   206.01  PRESS =     0.8
 Etot   =        19.1122  EKtot   =         5.7313  EPtot      =        13.3808
 BOND   =         0.1920  ANGLE   =         4.4709  DIHED      =         0.6492
 1-4 NB =         0.1030  1-4 EEL =        16.5185  VDWAALS    =        -0.0348
 EELEC  =        -8.5179  EHBOND  =         0.0000  RESTRAINT  =         0.0000
 EKCMT  =         1.5026  VIRIAL  =        -2.2620  VOLUME     =    232083.0120
                                                    Density    =         0.0004
 DV/DL  =       -14.2203
 ------------------------------------------------------------------------------

      A V E R A G E S   O V E R    1000 S T E P S

 NSTEP =     1000   TIME(PS) =     202.000  TEMP(K) =   258.73  PRESS =     0.9
 Etot   =        21.3836  EKtot   =         7.1980  EPtot      =        14.1856
 BOND   =         0.7502  ANGLE   =         4.1610  DIHED      =         1.3868
 1-4 NB =         0.2552  1-4 EEL =        16.4563  VDWAALS    =        -0.0384
 EELEC  =        -8.7854  EHBOND  =         0.0000  RESTRAINT  =         0.0000
 EKCMT  =         1.4579  VIRIAL  =        -2.8671  VOLUME     =    232083.1850
                                                    Density    =         0.0004
 DV/DL  =       -13.6343
 ------------------------------------------------------------------------------

      R M S  F L U C T U A T I O N S

 NSTEP =     1000   TIME(PS) =     202.000  TEMP(K) =    73.45  PRESS =     0.3
 Etot   =         3.0303  EKtot   =         2.0435  EPtot      =         1.9879
 BOND   =         0.5649  ANGLE   =         1.5799  DIHED      =         0.8327
 1-4 NB =         0.2557  1-4 EEL =         0.4454  VDWAALS    =         0.0071
 EELEC  =         0.3618  EHBOND  =         0.0000  RESTRAINT  =         0.0000
 EKCMT  =         0.8848  VIRIAL  =         1.0753  VOLUME     =         0.1236
                                                    Density    =         0.0000
 DV/DL  =         0.5172
 ------------------------------------------------------------------------------

      A V E R A G E S   O V E R    1000 S T E P S

 NSTEP =     1000   TIME(PS) =     202.000  TEMP(K) =   258.73  PRESS =     0.9
 Etot   =        21.3836  EKtot   =         7.1980  EPtot      =        14.1856
 BOND   =         0.7502  ANGLE   =         4.1610  DIHED      =         1.3868
 1-4 NB =         0.2552  1-4 EEL =        16.4563  VDWAALS    =        -0.0384
 EELEC  =        -8.7854  EHBOND  =         0.0000  RESTRAINT  =         0.0000
 EKCMT  =         1.4579  VIRIAL  =        -2.8671  VOLUME     =    232083.1850
                                                    Density    =         0.0004
 DV/DL  =       -13.6343
 ------------------------------------------------------------------------------

      R M S  F L U C T U A T I O N S

 NSTEP =     1000   TIME(PS) =     202.000  TEMP(K) =    73.45  PRESS =     0.3
 Etot   =         3.0303  EKtot   =         2.0435  EPtot      =         1.9879
 BOND   =         0.5649  ANGLE   =         1.5799  DIHED      =         0.8327
 1-4 NB =         0.2557  1-4 EEL =         0.4454  VDWAALS    =         0.0071
 EELEC  =         0.3618  EHBOND  =         0.0000  RESTRAINT  =         0.0000
 EKCMT  =         0.8848  VIRIAL  =         1.0753  VOLUME     =         0.1236
                                                    Density    =         0.0000
 DV/DL  =         0.5172
 ------------------------------------------------------------------------------

      DV/DL, AVERAGES OVER    1000 STEPS

 NSTEP =     1000   TIME(PS) =     202.000  TEMP(K) =    73.45  PRESS =     0.0
 Etot   =         0.0000  EKtot   =         0.0000  EPtot      =       -13.6343
 BOND   =         0.0000  ANGLE   =         0.0000  DIHED      =         0.0000
 1-4 NB =         0.0000  1-4 EEL =       -29.2494  VDWAALS    =         0.0000
 EELEC  =        15.6151  EHBOND  =         0.0000  RESTRAINT  =         0.0000
 EKCMT  =         0.0000  VIRIAL  =         0.0000  VOLUME     =         0.0000
                                                    Density    =         0.0000
 DV/DL  =       -13.6343
 ------------------------------------------------------------------------------

      A V E R A G E S   O V E R    1000 S T E P S

 NSTEP =     2000   TIME(PS) =     204.000  TEMP(K) =   314.40  PRESS =     1.2
 Etot   =        23.9376  EKtot   =         8.7468  EPtot      =        15.1909
 BOND   =         1.0363  ANGLE   =         5.3156  DIHED      =         0.9885
 1-4 NB =         0.2143  1-4 EEL =        16.3430  VDWAALS    =        -0.0380
 EELEC  =        -8.6688  EHBOND  =         0.0000  RESTRAINT  =         0.0000
 EKCMT  =         2.3121  VIRIAL  =        -3.4802  VOLUME     =    232083.0278
                                                    Density    =         0.0004
 DV/DL  =       -13.6400
 ------------------------------------------------------------------------------

      R M S  F L U C T U A T I O N S

 NSTEP =     2000   TIME(PS) =     204.000  TEMP(K) =    87.34  PRESS =     0.4
 Etot   =         3.2478  EKtot   =         2.4298  EPtot      =         2.0632
 BOND   =         0.7780  ANGLE   =         1.8345  DIHED      =         0.5754
 1-4 NB =         0.2491  1-4 EEL =         0.4831  VDWAALS    =         0.0062
 EELEC  =         0.3122  EHBOND  =         0.0000  RESTRAINT  =         0.0000
 EKCMT  =         2.0179  VIRIAL  =         0.9329  VOLUME     =         0.3140
                                                    Density    =         0.0000
 DV/DL  =         0.5892
 ------------------------------------------------------------------------------

      A V E R A G E S   O V E R    1000 S T E P S

 NSTEP =     2000   TIME(PS) =     204.000  TEMP(K) =   314.40  PRESS =     1.2
 Etot   =        23.9376  EKtot   =         8.7468  EPtot      =        15.1909
 BOND   =         1.0363  ANGLE   =         5.3156  DIHED      =         0.9885
 1-4 NB =         0.2143  1-4 EEL =        16.3430  VDWAALS    =        -0.0380
 EELEC  =        -8.6688  EHBOND  =         0.0000  RESTRAINT  =         0.0000
 EKCMT  =         2.3121  VIRIAL  =        -3.4802  VOLUME     =    232083.0278
                                                    Density    =         0.0004
 DV/DL  =       -13.6400
 ------------------------------------------------------------------------------

      R M S  F L U C T U A T I O N S

 NSTEP =     2000   TIME(PS) =     204.000  TEMP(K) =    87.34  PRESS =     0.4
 Etot   =         3.2478  EKtot   =         2.4298  EPtot      =         2.0632
 BOND   =         0.7780  ANGLE   =         1.8345  DIHED      =         0.5754
 1-4 NB =         0.2491  1-4 EEL =         0.4831  VDWAALS    =         0.0062
 EELEC  =         0.3122  EHBOND  =         0.0000  RESTRAINT  =         0.0000
 EKCMT  =         2.0179  VIRIAL  =         0.9329  VOLUME     =         0.3140
                                                    Density    =         0.0000
 DV/DL  =         0.5892
 ------------------------------------------------------------------------------

      DV/DL, AVERAGES OVER    1000 STEPS

 NSTEP =     2000   TIME(PS) =     204.000  TEMP(K) =    87.34  PRESS =     0.0
 Etot   =         0.0000  EKtot   =         0.0000  EPtot      =       -13.6400
 BOND   =         0.0000  ANGLE   =         0.0000  DIHED      =         0.0000
 1-4 NB =         0.0000  1-4 EEL =       -29.0479  VDWAALS    =         0.0000
 EELEC  =        15.4079  EHBOND  =         0.0000  RESTRAINT  =         0.0000
 EKCMT  =         0.0000  VIRIAL  =         0.0000  VOLUME     =         0.0000
                                                    Density    =         0.0000
 DV/DL  =       -13.6400
 ------------------------------------------------------------------------------

      A V E R A G E S   O V E R    1000 S T E P S

 NSTEP =   500000   TIME(PS) =    1200.000  TEMP(K) =   279.52  PRESS =     1.2
 Etot   =        22.0918  EKtot   =         7.7764  EPtot      =        14.3154
 BOND   =         0.7800  ANGLE   =         5.1358  DIHED      =         0.8957
 1-4 NB =         0.5152  1-4 EEL =        21.8433  VDWAALS    =        -0.1384
 EELEC  =       -14.7161  EHBOND  =         0.0000  RESTRAINT  =         0.0000
 EKCMT  =         1.7468  VIRIAL  =        -4.1119  VOLUME     =    232299.6502
                                                    Density    =         0.0004
 DV/DL  =       -12.6677
 ------------------------------------------------------------------------------

      R M S  F L U C T U A T I O N S

 NSTEP =   500000   TIME(PS) =    1200.000  TEMP(K) =    75.15  PRESS =     0.3
 Etot   =         3.2118  EKtot   =         2.0907  EPtot      =         2.1752
 BOND   =         0.6875  ANGLE   =         1.7869  DIHED      =         0.5321
 1-4 NB =         0.3884  1-4 EEL =         1.3397  VDWAALS    =         0.0219
 EELEC  =         1.3559  EHBOND  =         0.0000  RESTRAINT  =         0.0000
 EKCMT  =         1.0056  VIRIAL  =         0.8236  VOLUME     =         0.0000
                                                    Density    =         0.0000
 DV/DL  =         0.3373
 ------------------------------------------------------------------------------

      A V E R A G E S   O V E R    1000 S T E P S

 NSTEP =   500000   TIME(PS) =    1200.000  TEMP(K) =   279.52  PRESS =     1.2
 Etot   =        22.0918  EKtot   =         7.7764  EPtot      =        14.3154
 BOND   =         0.7800  ANGLE   =         5.1358  DIHED      =         0.8957
 1-4 NB =         0.5152  1-4 EEL =        21.8433  VDWAALS    =        -0.1384
 EELEC  =       -14.7161  EHBOND  =         0.0000  RESTRAINT  =         0.0000
 EKCMT  =         1.7468  VIRIAL  =        -4.1119  VOLUME     =    232299.6502
                                                    Density    =         0.0004
 DV/DL  =       -12.6677
 ------------------------------------------------------------------------------

      R M S  F L U C T U A T I O N S

 NSTEP =   500000   TIME(PS) =    1200.000  TEMP(K) =    75.15  PRESS =     0.3
 Etot   =         3.2118  EKtot   =         2.0907  EPtot      =         2.1752
 BOND   =         0.6875  ANGLE   =         1.7869  DIHED      =         0.5321
 1-4 NB =         0.3884  1-4 EEL =         1.3397  VDWAALS    =         0.0219
 EELEC  =         1.3559  EHBOND  =         0.0000  RESTRAINT  =         0.0000
 EKCMT  =         1.0056  VIRIAL  =         0.8236  VOLUME     =         0.0000
                                                    Density    =         0.0000
 DV/DL  =         0.3373
 ------------------------------------------------------------------------------

      DV/DL, AVERAGES OVER    1000 STEPS

 NSTEP =   500000   TIME(PS) =    1200.000  TEMP(K) =    75.15  PRESS =     0.0
 Etot   =         0.0000  EKtot   =         0.0000  EPtot      =       -12.6677
 BOND   =         0.0000  ANGLE   =         0.0000  DIHED      =         0.0000
 1-4 NB =         0.0000  1-4 EEL =       -38.8242  VDWAALS    =         0.0000
 EELEC  =        26.1565  EHBOND  =         0.0000  RESTRAINT  =         0.0000
 EKCMT  =         0.0000  VIRIAL  =         0.0000  VOLUME     =         0.0000
                                                    Density    =         0.0000
 DV/DL  =       -12.6677
 ------------------------------------------------------------------------------

      A V E R A G E S   O V E R  500000 S T E P S

 NSTEP =   500000   TIME(PS) =    1200.000  TEMP(K) =   299.67  PRESS =     1.1
 Etot   =        23.0117  EKtot   =         8.3369  EPtot      =        14.6748
 BOND   =         0.9413  ANGLE   =         4.8899  DIHED      =         1.1510
 1-4 NB =         0.4204  1-4 EEL =        19.4372  VDWAALS    =        -0.0761
 EELEC  =       -12.0888  EHBOND  =         0.0000  RESTRAINT  =         0.0000
 EKCMT  =         1.7925  VIRIAL  =        -3.8104  VOLUME     =    232176.5483
                                                    Density    =         0.0004
 DV/DL  =       -13.0609
 ------------------------------------------------------------------------------

      R M S  F L U C T U A T I O N S

 NSTEP =   500000   TIME(PS) =    1200.000  TEMP(K) =    79.98  PRESS =     0.4
 Etot   =         3.1184  EKtot   =         2.2252  EPtot      =         2.1798
 BOND   =         0.7704  ANGLE   =         1.7293  DIHED      =         0.8281
 1-4 NB =         0.4659  1-4 EEL =         3.5634  VDWAALS    =         0.0376
 EELEC  =         3.6914  EHBOND  =         0.0000  RESTRAINT  =         0.0000
 EKCMT  =         1.4473  VIRIAL  =         1.2830  VOLUME     =        70.4544
                                                    Density    =         0.0000
 DV/DL  =         0.7044
 ------------------------------------------------------------------------------

      A V E R A G E S   O V E R  500000 S T E P S

 NSTEP =   500000   TIME(PS) =    1200.000  TEMP(K) =   299.67  PRESS =     1.1
 Etot   =        23.0117  EKtot   =         8.3369  EPtot      =        14.6748
 BOND   =         0.9413  ANGLE   =         4.8899  DIHED      =         1.1510
 1-4 NB =         0.4204  1-4 EEL =        19.4372  VDWAALS    =        -0.0761
 EELEC  =       -12.0888  EHBOND  =         0.0000  RESTRAINT  =         0.0000
 EKCMT  =         1.7925  VIRIAL  =        -3.8104  VOLUME     =    232176.5483
                                                    Density    =         0.0004
 DV/DL  =       -13.0609
 ------------------------------------------------------------------------------

      R M S  F L U C T U A T I O N S

 NSTEP =   500000   TIME(PS) =    1200.000  TEMP(K) =    79.98  PRESS =     0.4
 Etot   =         3.1184  EKtot   =         2.2252  EPtot      =         2.1798
 BOND   =         0.7704  ANGLE   =         1.7293  DIHED      =         0.8281
 1-4 NB =         0.4659  1-4 EEL =         3.5634  VDWAALS    =         0.0376
 EELEC  =         3.6914  EHBOND  =         0.0000  RESTRAINT  =         0.0000
 EKCMT  =         1.4473  VIRIAL  =         1.2830  VOLUME     =        70.4544
                                                    Density    =         0.0000
 DV/DL  =         0.7044
 ------------------------------------------------------------------------------

      DV/DL, AVERAGES OVER  500000 STEPS

 NSTEP =   500000   TIME(PS) =    1200.000  TEMP(K) =    79.98  PRESS =     0.0
 Etot   =         0.0000  EKtot   =         0.0000  EPtot      =       -13.0609
 BOND   =         0.0000  ANGLE   =         0.0000  DIHED      =         0.0000
 1-4 NB =         0.0000  1-4 EEL =       -34.5476  VDWAALS    =         0.0000
 EELEC  =        21.4867  EHBOND  =         0.0000  RESTRAINT  =         0.0000
 EKCMT  =         0.0000  VIRIAL  =         0.0000  VOLUME     =         0.0000
                                                    Density    =         0.0000
 DV/DL  =       -13.0609
 ------------------------------------------------------------------------------
