-------------------------------------------------------
          Amber 18 PMEMD                              2018
          -------------------------------------------------------

  [-O]verwriting output

File Assignments:

 Here is the input file:

 &cntrl
   nstlim=500000, nscm=1000,
   ntx=5, irest=1, ntpr=1000,
   tempi=300.0, temp0=300.0, ntt=3, gamma_ln=2.0,
   ntp=1, pres0=1.01325, taup=5.0,
   ntb=2, igb=0, cut=10.0,
   dt=0.002, ig=-1,
   ntc=2, ntf=2,
   iwrap=0,
   ntwr=1000, ntwx=50000, ntave=1000,
   ioutfm=1, ntwv=-1,
   ifsc = 0, icfe=1,
   clambda=0.99078,
   timask1=':1',
   timask2=':2', crgmask = ':2',
/

Note: ig = -1. Setting random seed to   265769 based on wallclock time in
      microseconds.

--------------------------------------------------------------------------------
   1.  RESOURCE   USE:
--------------------------------------------------------------------------------

 getting box info from netcdf restart file
 NATOM  =      24 NTYPES =       6 NBONH =      16 MBONA  =       6
 NTHETH =      32 MTHETA =       4 NPHIH =      40 MPHIA  =       2
 NHPARM =       0 NPARM  =       0 NNB   =     102 NRES   =       2
 NBONA  =       6 NTHETA =       4 NPHIA =       2 NUMBND =       4
 NUMANG =       6 NPTRA  =       2 NATYP =       6 NPHB   =       1
 IFBOX  =       2 NMXRS  =      12 IFCAP =       0 NEXTRA =       0
 NCOPY  =       0

     BOX TYPE: TRUNCATED OCTAHEDRON

--------------------------------------------------------------------------------
   2.  CONTROL  DATA  FOR  THE  RUN
--------------------------------------------------------------------------------

default_name

General flags:
     imin    =       0, nmropt  =       0

Nature and format of input:
     ntx     =       5, irest   =       1, ntrx    =       1

Nature and format of output:
     ntxo    =       2, ntpr    =    1000, ntrx    =       1, ntwr    =    1000
     iwrap   =       0, ntwx    =   50000, ntwv    =      -1, ntwe    =       0
     ioutfm  =       1, ntwprt  =       0, idecomp =       0, rbornstat=      0

Potential function:
     ntf     =       2, ntb     =       2, igb     =       0, nsnb    =      25
     ipol    =       0, gbsa    =       0, iesp    =       0
     dielc   =   1.00000, cut     =  10.00000, intdiel =   1.00000

Frozen or restrained atoms:
     ibelly  =       0, ntr     =       0

Molecular dynamics:
     nstlim  =    500000, nscm    =      1000, nrespa  =         1
     t       =   0.00000, dt      =   0.00200, vlimit  =  -1.00000

Langevin dynamics temperature regulation:
     ig      =  265769
     temp0   = 300.00000, tempi   = 300.00000, gamma_ln=   2.00000

Pressure regulation:
     ntp     =       1
     pres0   =   1.01325, comp    =  44.60000, taup    =   5.00000

SHAKE:
     ntc     =       2, jfastw  =       0
     tol     =   0.00001

Free energy options:
     icfe    =       1, ifsc    =       0, klambda =       1
     clambda =  0.9908, scalpha =  0.5000, scbeta  = 12.0000
     sceeorder =       2
     dynlmb =  0.0000 logdvdl =       0

Ewald parameters:
     verbose =       0, ew_type =       0, nbflag  =       1, use_pme =       1
     vdwmeth =       1, eedmeth =       1, netfrc  =       1
     Box X =   67.054   Box Y =   67.054   Box Z =   67.054
     Alpha =  109.471   Beta  =  109.471   Gamma =  109.471
     NFFT1 =   64       NFFT2 =   64       NFFT3 =   64
     Cutoff=   10.000   Tol   =0.100E-04
     Ewald Coefficient =  0.27511
     Interpolation order =    4
     TI Mask 1 :1; matches     12 atoms
     TI Mask 2 :2; matches     12 atoms
     TI region 1:      12 atoms
     TI region 2:      12 atoms
Removing charge of      -0.6664 from atom      13
Removing charge of      -0.6664 from atom      14
Removing charge of      -0.0664 from atom      15
Removing charge of      -0.0664 from atom      16
Removing charge of       0.2792 from atom      17
Removing charge of       0.2802 from atom      18
Removing charge of       0.2802 from atom      19
Removing charge of       0.2792 from atom      20
Removing charge of       0.0898 from atom      21
Removing charge of       0.0837 from atom      22
Removing charge of       0.0898 from atom      23
Removing charge of       0.0837 from atom      24
Total charge of  -0.00000000 removed from      12 atoms
     Checking for mismatched coordinates.

--------------------------------------------------------------------------------
   3.  ATOMIC COORDINATES AND VELOCITIES
--------------------------------------------------------------------------------

default_name
 begin time read from input coords =   200.000 ps

 Number of triangulated 3-point waters found:        0

     Sum of charges for TI region  1 =  -0.00000000
     Forcing neutrality...

     Sum of charges for TI region  2 =   0.00000000
     Forcing neutrality...

--------------------------------------------------------------------------------
   4.  RESULTS
 NSTEP =     1000   TIME(PS) =     202.000  TEMP(K) =   221.74  PRESS =     2.4
 Etot   =        17.0883  EKtot   =         6.1690  EPtot      =        10.9193
 BOND   =         1.7425  ANGLE   =         6.1544  DIHED      =         2.0640
 1-4 NB =         0.8982  1-4 EEL =         0.2679  VDWAALS    =        -0.0632
 EELEC  =        -0.1445  EHBOND  =         0.0000  RESTRAINT  =         0.0000
 EKCMT  =         3.1845  VIRIAL  =        -8.8453  VOLUME     =    232087.6520
                                                    Density    =         0.0004
 DV/DL  =       -13.3874
 ------------------------------------------------------------------------------

      A V E R A G E S   O V E R    1000 S T E P S

 NSTEP =     1000   TIME(PS) =     202.000  TEMP(K) =   338.40  PRESS =     2.0
 Etot   =        17.0473  EKtot   =         9.4144  EPtot      =         7.6329
 BOND   =         0.9647  ANGLE   =         5.3245  DIHED      =         1.0209
 1-4 NB =         0.2502  1-4 EEL =         0.2596  VDWAALS    =        -0.0510
 EELEC  =        -0.1359  EHBOND  =         0.0000  RESTRAINT  =         0.0000
 EKCMT  =         2.4301  VIRIAL  =        -7.5189  VOLUME     =    232085.7340
                                                    Density    =         0.0004
 DV/DL  =       -13.4122
 ------------------------------------------------------------------------------

      R M S  F L U C T U A T I O N S

 NSTEP =     1000   TIME(PS) =     202.000  TEMP(K) =    75.91  PRESS =     0.5
 Etot   =         2.1102  EKtot   =         2.1119  EPtot      =         1.6773
 BOND   =         0.6753  ANGLE   =         1.4370  DIHED      =         0.5336
 1-4 NB =         0.3130  1-4 EEL =         0.0060  VDWAALS    =         0.0091
 EELEC  =         0.0049  EHBOND  =         0.0000  RESTRAINT  =         0.0000
 EKCMT  =         1.5142  VIRIAL  =         2.0308  VOLUME     =         1.2659
                                                    Density    =         0.0000
 DV/DL  =         0.3963
 ------------------------------------------------------------------------------

      A V E R A G E S   O V E R    1000 S T E P S

 NSTEP =     1000   TIME(PS) =     202.000  TEMP(K) =   338.40  PRESS =     2.0
 Etot   =        17.0473  EKtot   =         9.4144  EPtot      =         7.6329
 BOND   =         0.9647  ANGLE   =         5.3245  DIHED      =         1.0209
 1-4 NB =         0.2502  1-4 EEL =         0.2596  VDWAALS    =        -0.0510
 EELEC  =        -0.1359  EHBOND  =         0.0000  RESTRAINT  =         0.0000
 EKCMT  =         2.4301  VIRIAL  =        -7.5189  VOLUME     =    232085.7340
                                                    Density    =         0.0004
 DV/DL  =       -13.4122
 ------------------------------------------------------------------------------

      R M S  F L U C T U A T I O N S

 NSTEP =     1000   TIME(PS) =     202.000  TEMP(K) =    75.91  PRESS =     0.5
 Etot   =         2.1102  EKtot   =         2.1119  EPtot      =         1.6773
 BOND   =         0.6753  ANGLE   =         1.4370  DIHED      =         0.5336
 1-4 NB =         0.3130  1-4 EEL =         0.0060  VDWAALS    =         0.0091
 EELEC  =         0.0049  EHBOND  =         0.0000  RESTRAINT  =         0.0000
 EKCMT  =         1.5142  VIRIAL  =         2.0308  VOLUME     =         1.2659
                                                    Density    =         0.0000
 DV/DL  =         0.3963
 ------------------------------------------------------------------------------

      DV/DL, AVERAGES OVER    1000 STEPS

 NSTEP =     1000   TIME(PS) =     202.000  TEMP(K) =    75.91  PRESS =     0.0
 Etot   =         0.0000  EKtot   =         0.0000  EPtot      =       -13.4122
 BOND   =         0.0000  ANGLE   =         0.0000  DIHED      =         0.0000
 1-4 NB =         0.0000  1-4 EEL =       -28.1559  VDWAALS    =         0.0000
 EELEC  =        14.7437  EHBOND  =         0.0000  RESTRAINT  =         0.0000
 EKCMT  =         0.0000  VIRIAL  =         0.0000  VOLUME     =         0.0000
                                                    Density    =         0.0000
 DV/DL  =       -13.4122
 ------------------------------------------------------------------------------

      A V E R A G E S   O V E R    1000 S T E P S

 NSTEP =     2000   TIME(PS) =     204.000  TEMP(K) =   298.09  PRESS =     1.7
 Etot   =        16.0082  EKtot   =         8.2931  EPtot      =         7.7151
 BOND   =         1.1682  ANGLE   =         5.2469  DIHED      =         0.9872
 1-4 NB =         0.2403  1-4 EEL =         0.2604  VDWAALS    =        -0.0509
 EELEC  =        -0.1369  EHBOND  =         0.0000  RESTRAINT  =         0.0000
 EKCMT  =         1.7165  VIRIAL  =        -6.8222  VOLUME     =    232088.7815
                                                    Density    =         0.0004
 DV/DL  =       -13.3897
 ------------------------------------------------------------------------------

      R M S  F L U C T U A T I O N S

 NSTEP =     2000   TIME(PS) =     204.000  TEMP(K) =    76.03  PRESS =     0.4
 Etot   =         2.6144  EKtot   =         2.1152  EPtot      =         1.9273
 BOND   =         0.9071  ANGLE   =         1.6133  DIHED      =         0.5582
 1-4 NB =         0.2501  1-4 EEL =         0.0076  VDWAALS    =         0.0068
 EELEC  =         0.0052  EHBOND  =         0.0000  RESTRAINT  =         0.0000
 EKCMT  =         0.9309  VIRIAL  =         1.7449  VOLUME     =         0.8049
                                                    Density    =         0.0000
 DV/DL  =         0.4644
 ------------------------------------------------------------------------------

      A V E R A G E S   O V E R    1000 S T E P S

 NSTEP =     2000   TIME(PS) =     204.000  TEMP(K) =   298.09  PRESS =     1.7
 Etot   =        16.0082  EKtot   =         8.2931  EPtot      =         7.7151
 BOND   =         1.1682  ANGLE   =         5.2469  DIHED      =         0.9872
 1-4 NB =         0.2403  1-4 EEL =         0.2604  VDWAALS    =        -0.0509
 EELEC  =        -0.1369  EHBOND  =         0.0000  RESTRAINT  =         0.0000
 EKCMT  =         1.7165  VIRIAL  =        -6.8222  VOLUME     =    232088.7815
                                                    Density    =         0.0004
 DV/DL  =       -13.3897
 ------------------------------------------------------------------------------

      R M S  F L U C T U A T I O N S

 NSTEP =     2000   TIME(PS) =     204.000  TEMP(K) =    76.03  PRESS =     0.4
 Etot   =         2.6144  EKtot   =         2.1152  EPtot      =         1.9273
 BOND   =         0.9071  ANGLE   =         1.6133  DIHED      =         0.5582
 1-4 NB =         0.2501  1-4 EEL =         0.0076  VDWAALS    =         0.0068
 EELEC  =         0.0052  EHBOND  =         0.0000  RESTRAINT  =         0.0000
 EKCMT  =         0.9309  VIRIAL  =         1.7449  VOLUME     =         0.8049
                                                    Density    =         0.0000
 DV/DL  =         0.4644
 ------------------------------------------------------------------------------

      DV/DL, AVERAGES OVER    1000 STEPS

 NSTEP =     2000   TIME(PS) =     204.000  TEMP(K) =    76.03  PRESS =     0.0
 Etot   =         0.0000  EKtot   =         0.0000  EPtot      =       -13.3897
 BOND   =         0.0000  ANGLE   =         0.0000  DIHED      =         0.0000
 1-4 NB =         0.0000  1-4 EEL =       -28.2389  VDWAALS    =         0.0000
 EELEC  =        14.8493  EHBOND  =         0.0000  RESTRAINT  =         0.0000
 EKCMT  =         0.0000  VIRIAL  =         0.0000  VOLUME     =         0.0000
                                                    Density    =         0.0000
 DV/DL  =       -13.3897
 ------------------------------------------------------------------------------

      A V E R A G E S   O V E R    1000 S T E P S

 NSTEP =   500000   TIME(PS) =    1200.000  TEMP(K) =   323.70  PRESS =     2.6
 Etot   =        16.7434  EKtot   =         9.0056  EPtot      =         7.7378
 BOND   =         0.6587  ANGLE   =         4.6325  DIHED      =         1.6452
 1-4 NB =         0.8193  1-4 EEL =         0.3664  VDWAALS    =        -0.1359
 EELEC  =        -0.2485  EHBOND  =         0.0000  RESTRAINT  =         0.0000
 EKCMT  =         3.0636  VIRIAL  =       -10.2190  VOLUME     =    234776.4313
                                                    Density    =         0.0004
 DV/DL  =       -12.7868
 ------------------------------------------------------------------------------

      R M S  F L U C T U A T I O N S

 NSTEP =   500000   TIME(PS) =    1200.000  TEMP(K) =   103.36  PRESS =     0.8
 Etot   =         4.4468  EKtot   =         2.8756  EPtot      =         2.7248
 BOND   =         0.5139  ANGLE   =         1.9149  DIHED      =         1.1927
 1-4 NB =         0.8347  1-4 EEL =         0.0282  VDWAALS    =         0.0331
 EELEC  =         0.0282  EHBOND  =         0.0000  RESTRAINT  =         0.0000
 EKCMT  =         1.4844  VIRIAL  =         3.9039  VOLUME     =         2.1584
                                                    Density    =         0.0000
 DV/DL  =         0.3297
 ------------------------------------------------------------------------------

      A V E R A G E S   O V E R    1000 S T E P S

 NSTEP =   500000   TIME(PS) =    1200.000  TEMP(K) =   323.70  PRESS =     2.6
 Etot   =        16.7434  EKtot   =         9.0056  EPtot      =         7.7378
 BOND   =         0.6587  ANGLE   =         4.6325  DIHED      =         1.6452
 1-4 NB =         0.8193  1-4 EEL =         0.3664  VDWAALS    =        -0.1359
 EELEC  =        -0.2485  EHBOND  =         0.0000  RESTRAINT  =         0.0000
 EKCMT  =         3.0636  VIRIAL  =       -10.2190  VOLUME     =    234776.4313
                                                    Density    =         0.0004
 DV/DL  =       -12.7868
 ------------------------------------------------------------------------------

      R M S  F L U C T U A T I O N S

 NSTEP =   500000   TIME(PS) =    1200.000  TEMP(K) =   103.36  PRESS =     0.8
 Etot   =         4.4468  EKtot   =         2.8756  EPtot      =         2.7248
 BOND   =         0.5139  ANGLE   =         1.9149  DIHED      =         1.1927
 1-4 NB =         0.8347  1-4 EEL =         0.0282  VDWAALS    =         0.0331
 EELEC  =         0.0282  EHBOND  =         0.0000  RESTRAINT  =         0.0000
 EKCMT  =         1.4844  VIRIAL  =         3.9039  VOLUME     =         2.1584
                                                    Density    =         0.0000
 DV/DL  =         0.3297
 ------------------------------------------------------------------------------

      DV/DL, AVERAGES OVER    1000 STEPS

 NSTEP =   500000   TIME(PS) =    1200.000  TEMP(K) =   103.36  PRESS =     0.0
 Etot   =         0.0000  EKtot   =         0.0000  EPtot      =       -12.7868
 BOND   =         0.0000  ANGLE   =         0.0000  DIHED      =         0.0000
 1-4 NB =         0.0000  1-4 EEL =       -39.7368  VDWAALS    =         0.0000
 EELEC  =        26.9499  EHBOND  =         0.0000  RESTRAINT  =         0.0000
 EKCMT  =         0.0000  VIRIAL  =         0.0000  VOLUME     =         0.0000
                                                    Density    =         0.0000
 DV/DL  =       -12.7868
 ------------------------------------------------------------------------------

      A V E R A G E S   O V E R  500000 S T E P S

 NSTEP =   500000   TIME(PS) =    1200.000  TEMP(K) =   299.18  PRESS =     2.3
 Etot   =        16.0978  EKtot   =         8.3234  EPtot      =         7.7744
 BOND   =         0.9380  ANGLE   =         4.9666  DIHED      =         1.1758
 1-4 NB =         0.6464  1-4 EEL =         0.3305  VDWAALS    =        -0.0771
 EELEC  =        -0.2058  EHBOND  =         0.0000  RESTRAINT  =         0.0000
 EKCMT  =         1.7563  VIRIAL  =        -9.8767  VOLUME     =    233433.2951
                                                    Density    =         0.0004
 DV/DL  =       -13.5207
 ------------------------------------------------------------------------------

      R M S  F L U C T U A T I O N S

 NSTEP =   500000   TIME(PS) =    1200.000  TEMP(K) =    80.85  PRESS =     1.1
 Etot   =         3.4082  EKtot   =         2.2494  EPtot      =         2.4871
 BOND   =         0.7710  ANGLE   =         1.7705  DIHED      =         0.8345
 1-4 NB =         0.9822  1-4 EEL =         0.0652  VDWAALS    =         0.0519
 EELEC  =         0.0646  EHBOND  =         0.0000  RESTRAINT  =         0.0000
 EKCMT  =         1.4485  VIRIAL  =         5.3637  VOLUME     =       778.0470
                                                    Density    =         0.0000
 DV/DL  =         0.9565
 ------------------------------------------------------------------------------

      A V E R A G E S   O V E R  500000 S T E P S

 NSTEP =   500000   TIME(PS) =    1200.000  TEMP(K) =   299.18  PRESS =     2.3
 Etot   =        16.0978  EKtot   =         8.3234  EPtot      =         7.7744
 BOND   =         0.9380  ANGLE   =         4.9666  DIHED      =         1.1758
 1-4 NB =         0.6464  1-4 EEL =         0.3305  VDWAALS    =        -0.0771
 EELEC  =        -0.2058  EHBOND  =         0.0000  RESTRAINT  =         0.0000
 EKCMT  =         1.7563  VIRIAL  =        -9.8767  VOLUME     =    233433.2951
                                                    Density    =         0.0004
 DV/DL  =       -13.5207
 ------------------------------------------------------------------------------

      R M S  F L U C T U A T I O N S

 NSTEP =   500000   TIME(PS) =    1200.000  TEMP(K) =    80.85  PRESS =     1.1
 Etot   =         3.4082  EKtot   =         2.2494  EPtot      =         2.4871
 BOND   =         0.7710  ANGLE   =         1.7705  DIHED      =         0.8345
 1-4 NB =         0.9822  1-4 EEL =         0.0652  VDWAALS    =         0.0519
 EELEC  =         0.0646  EHBOND  =         0.0000  RESTRAINT  =         0.0000
 EKCMT  =         1.4485  VIRIAL  =         5.3637  VOLUME     =       778.0470
                                                    Density    =         0.0000
 DV/DL  =         0.9565
 ------------------------------------------------------------------------------

      DV/DL, AVERAGES OVER  500000 STEPS

 NSTEP =   500000   TIME(PS) =    1200.000  TEMP(K) =    80.85  PRESS =     0.0
 Etot   =         0.0000  EKtot   =         0.0000  EPtot      =       -13.5207
 BOND   =         0.0000  ANGLE   =         0.0000  DIHED      =         0.0000
 1-4 NB =         0.0000  1-4 EEL =       -35.8458  VDWAALS    =         0.0000
 EELEC  =        22.3250  EHBOND  =         0.0000  RESTRAINT  =         0.0000
 EKCMT  =         0.0000  VIRIAL  =         0.0000  VOLUME     =         0.0000
                                                    Density    =         0.0000
 DV/DL  =       -13.5207
 ------------------------------------------------------------------------------
