-------------------------------------------------------
          Amber 18 PMEMD                              2018
          -------------------------------------------------------

  [-O]verwriting output

File Assignments:

 Here is the input file:

 &cntrl
   nstlim=500000, nscm=1000,
   ntx=5, irest=1, ntpr=1000,
   tempi=300.0, temp0=300.0, ntt=3, gamma_ln=2.0,
   ntp=1, pres0=1.01325, taup=5.0,
   ntb=2, igb=0, cut=10.0,
   dt=0.002, ig=-1,
   ntc=2, ntf=2,
   iwrap=0,
   ntwr=1000, ntwx=50000, ntave=1000,
   ioutfm=1, ntwv=-1,
   ifsc = 0, icfe=1,
   clambda=0.31608,
   timask1=':1',
   timask2=':2', crgmask = ':2',
/

Note: ig = -1. Setting random seed to   498561 based on wallclock time in
      microseconds.

--------------------------------------------------------------------------------
   1.  RESOURCE   USE:
--------------------------------------------------------------------------------

 getting box info from netcdf restart file
 NATOM  =   20967 NTYPES =       6 NBONH =   20959 MBONA  =       6
 NTHETH =      32 MTHETA =       4 NPHIH =      40 MPHIA  =       2
 NHPARM =       0 NPARM  =       0 NNB   =   28026 NRES   =    6983
 NBONA  =       6 NTHETA =       4 NPHIA =       2 NUMBND =       6
 NUMANG =       6 NPTRA  =       2 NATYP =       6 NPHB   =       1
 IFBOX  =       2 NMXRS  =      12 IFCAP =       0 NEXTRA =       0
 NCOPY  =       0

     BOX TYPE: TRUNCATED OCTAHEDRON

--------------------------------------------------------------------------------
   2.  CONTROL  DATA  FOR  THE  RUN
--------------------------------------------------------------------------------

default_name

General flags:
     imin    =       0, nmropt  =       0

Nature and format of input:
     ntx     =       5, irest   =       1, ntrx    =       1

Nature and format of output:
     ntxo    =       2, ntpr    =    1000, ntrx    =       1, ntwr    =    1000
     iwrap   =       0, ntwx    =   50000, ntwv    =      -1, ntwe    =       0
     ioutfm  =       1, ntwprt  =       0, idecomp =       0, rbornstat=      0

Potential function:
     ntf     =       2, ntb     =       2, igb     =       0, nsnb    =      25
     ipol    =       0, gbsa    =       0, iesp    =       0
     dielc   =   1.00000, cut     =  10.00000, intdiel =   1.00000

Frozen or restrained atoms:
     ibelly  =       0, ntr     =       0

Molecular dynamics:
     nstlim  =    500000, nscm    =      1000, nrespa  =         1
     t       =   0.00000, dt      =   0.00200, vlimit  =  -1.00000

Langevin dynamics temperature regulation:
     ig      =  498561
     temp0   = 300.00000, tempi   = 300.00000, gamma_ln=   2.00000

Pressure regulation:
     ntp     =       1
     pres0   =   1.01325, comp    =  44.60000, taup    =   5.00000

SHAKE:
     ntc     =       2, jfastw  =       0
     tol     =   0.00001

Free energy options:
     icfe    =       1, ifsc    =       0, klambda =       1
     clambda =  0.3161, scalpha =  0.5000, scbeta  = 12.0000
     sceeorder =       2
     dynlmb =  0.0000 logdvdl =       0

Ewald parameters:
     verbose =       0, ew_type =       0, nbflag  =       1, use_pme =       1
     vdwmeth =       1, eedmeth =       1, netfrc  =       1
     Box X =   67.054   Box Y =   67.054   Box Z =   67.054
     Alpha =  109.471   Beta  =  109.471   Gamma =  109.471
     NFFT1 =   64       NFFT2 =   64       NFFT3 =   64
     Cutoff=   10.000   Tol   =0.100E-04
     Ewald Coefficient =  0.27511
     Interpolation order =    4
     TI Mask 1 :1; matches     12 atoms
     TI Mask 2 :2; matches     12 atoms
     TI region 1:   20955 atoms
     TI region 2:   20955 atoms
Removing charge of      -0.6664 from atom      13
Removing charge of      -0.6664 from atom      14
Removing charge of      -0.0664 from atom      15
Removing charge of      -0.0664 from atom      16
Removing charge of       0.2792 from atom      17
Removing charge of       0.2802 from atom      18
Removing charge of       0.2802 from atom      19
Removing charge of       0.2792 from atom      20
Removing charge of       0.0898 from atom      21
Removing charge of       0.0837 from atom      22
Removing charge of       0.0898 from atom      23
Removing charge of       0.0837 from atom      24
Total charge of  -0.00000000 removed from      12 atoms
     Checking for mismatched coordinates.

--------------------------------------------------------------------------------
   3.  ATOMIC COORDINATES AND VELOCITIES
--------------------------------------------------------------------------------

default_name
 begin time read from input coords =   200.000 ps

 Number of triangulated 3-point waters found:     6981

     Sum of charges for TI region  1 =  -0.00000000
     Forcing neutrality...

     Sum of charges for TI region  2 =   0.00000000
     Forcing neutrality...

--------------------------------------------------------------------------------
   4.  RESULTS
 NSTEP =     1000   TIME(PS) =     202.000  TEMP(K) =   300.37  PRESS =  -906.7
 Etot   =    -53219.4694  EKtot   =     12508.9195  EPtot      =    -65728.3889
 BOND   =         0.7216  ANGLE   =         5.2262  DIHED      =         2.2371
 1-4 NB =         0.3442  1-4 EEL =        17.9035  VDWAALS    =      9466.2268
 EELEC  =    -75221.0482  EHBOND  =         0.0000  RESTRAINT  =         0.0000
 EKCMT  =      6256.1265  VIRIAL  =     10737.4715  VOLUME     =    228900.8257
                                                    Density    =         0.9128
 DV/DL  =        -4.8447
 ------------------------------------------------------------------------------

      A V E R A G E S   O V E R    1000 S T E P S

 NSTEP =     1000   TIME(PS) =     202.000  TEMP(K) =   299.47  PRESS =  -773.9
 Etot   =    -53144.4763  EKtot   =     12471.7326  EPtot      =    -65616.2088
 BOND   =         0.8866  ANGLE   =         5.5635  DIHED      =         1.1351
 1-4 NB =         0.1260  1-4 EEL =        18.3915  VDWAALS    =      9616.7533
 EELEC  =    -75259.0649  EHBOND  =         0.0000  RESTRAINT  =         0.0000
 EKCMT  =      6237.2030  VIRIAL  =     10088.7095  VOLUME     =    230461.5252
                                                    Density    =         0.9067
 DV/DL  =        -6.7642
 ------------------------------------------------------------------------------

      R M S  F L U C T U A T I O N S

 NSTEP =     1000   TIME(PS) =     202.000  TEMP(K) =     1.64  PRESS =   111.1
 Etot   =        72.6409  EKtot   =        68.4804  EPtot      =        85.9596
 BOND   =         0.6277  ANGLE   =         2.0667  DIHED      =         0.8205
 1-4 NB =         0.1413  1-4 EEL =         0.4287  VDWAALS    =        99.3834
 EELEC  =       130.2966  EHBOND  =         0.0000  RESTRAINT  =         0.0000
 EKCMT  =        47.2703  VIRIAL  =       560.6309  VOLUME     =       895.7414
                                                    Density    =         0.0035
 DV/DL  =         3.1914
 ------------------------------------------------------------------------------

      A V E R A G E S   O V E R    1000 S T E P S

 NSTEP =     1000   TIME(PS) =     202.000  TEMP(K) =   299.47  PRESS =  -773.9
 Etot   =    -53144.4763  EKtot   =     12471.7326  EPtot      =    -65616.2088
 BOND   =         0.8866  ANGLE   =         5.5635  DIHED      =         1.1351
 1-4 NB =         0.1260  1-4 EEL =        18.3915  VDWAALS    =      9616.7533
 EELEC  =    -75259.0649  EHBOND  =         0.0000  RESTRAINT  =         0.0000
 EKCMT  =      6237.2030  VIRIAL  =     10088.7095  VOLUME     =    230461.5252
                                                    Density    =         0.9067
 DV/DL  =        -6.7642
 ------------------------------------------------------------------------------

      R M S  F L U C T U A T I O N S

 NSTEP =     1000   TIME(PS) =     202.000  TEMP(K) =     1.64  PRESS =   111.1
 Etot   =        72.6409  EKtot   =        68.4804  EPtot      =        85.9596
 BOND   =         0.6277  ANGLE   =         2.0667  DIHED      =         0.8205
 1-4 NB =         0.1413  1-4 EEL =         0.4287  VDWAALS    =        99.3834
 EELEC  =       130.2966  EHBOND  =         0.0000  RESTRAINT  =         0.0000
 EKCMT  =        47.2703  VIRIAL  =       560.6309  VOLUME     =       895.7414
                                                    Density    =         0.0035
 DV/DL  =         3.1914
 ------------------------------------------------------------------------------

      DV/DL, AVERAGES OVER    1000 STEPS

 NSTEP =     1000   TIME(PS) =     202.000  TEMP(K) =     1.64  PRESS =     0.0
 Etot   =         0.0000  EKtot   =         0.0000  EPtot      =        -6.7642
 BOND   =         0.0000  ANGLE   =         0.0000  DIHED      =         0.0000
 1-4 NB =         0.0000  1-4 EEL =       -26.8913  VDWAALS    =         0.0000
 EELEC  =        20.1271  EHBOND  =         0.0000  RESTRAINT  =         0.0000
 EKCMT  =         0.0000  VIRIAL  =         0.0000  VOLUME     =         0.0000
                                                    Density    =         0.0000
 DV/DL  =        -6.7642
 ------------------------------------------------------------------------------

      A V E R A G E S   O V E R    1000 S T E P S

 NSTEP =     2000   TIME(PS) =     204.000  TEMP(K) =   300.85  PRESS =  -657.6
 Etot   =    -53164.3427  EKtot   =     12529.2509  EPtot      =    -65693.5936
 BOND   =         0.9922  ANGLE   =         4.3860  DIHED      =         1.4952
 1-4 NB =         0.1654  1-4 EEL =        18.6879  VDWAALS    =      9641.5816
 EELEC  =    -75360.9019  EHBOND  =         0.0000  RESTRAINT  =         0.0000
 EKCMT  =      6274.1191  VIRIAL  =      9504.8637  VOLUME     =    227470.7748
                                                    Density    =         0.9186
 DV/DL  =        -6.2387
 ------------------------------------------------------------------------------

      R M S  F L U C T U A T I O N S

 NSTEP =     2000   TIME(PS) =     204.000  TEMP(K) =     1.92  PRESS =   137.1
 Etot   =        89.0256  EKtot   =        80.1309  EPtot      =        95.5506
 BOND   =         0.7349  ANGLE   =         1.8498  DIHED      =         0.9438
 1-4 NB =         0.1680  1-4 EEL =         0.5609  VDWAALS    =       125.4356
 EELEC  =       182.1419  EHBOND  =         0.0000  RESTRAINT  =         0.0000
 EKCMT  =        61.9235  VIRIAL  =       673.3257  VOLUME     =       764.5426
                                                    Density    =         0.0031
 DV/DL  =         4.1741
 ------------------------------------------------------------------------------

      A V E R A G E S   O V E R    1000 S T E P S

 NSTEP =     2000   TIME(PS) =     204.000  TEMP(K) =   300.85  PRESS =  -657.6
 Etot   =    -53164.3427  EKtot   =     12529.2509  EPtot      =    -65693.5936
 BOND   =         0.9922  ANGLE   =         4.3860  DIHED      =         1.4952
 1-4 NB =         0.1654  1-4 EEL =        18.6879  VDWAALS    =      9641.5816
 EELEC  =    -75360.9019  EHBOND  =         0.0000  RESTRAINT  =         0.0000
 EKCMT  =      6274.1191  VIRIAL  =      9504.8637  VOLUME     =    227470.7748
                                                    Density    =         0.9186
 DV/DL  =        -6.2387
 ------------------------------------------------------------------------------

      R M S  F L U C T U A T I O N S

 NSTEP =     2000   TIME(PS) =     204.000  TEMP(K) =     1.92  PRESS =   137.1
 Etot   =        89.0256  EKtot   =        80.1309  EPtot      =        95.5506
 BOND   =         0.7349  ANGLE   =         1.8498  DIHED      =         0.9438
 1-4 NB =         0.1680  1-4 EEL =         0.5609  VDWAALS    =       125.4356
 EELEC  =       182.1419  EHBOND  =         0.0000  RESTRAINT  =         0.0000
 EKCMT  =        61.9235  VIRIAL  =       673.3257  VOLUME     =       764.5426
                                                    Density    =         0.0031
 DV/DL  =         4.1741
 ------------------------------------------------------------------------------

      DV/DL, AVERAGES OVER    1000 STEPS

 NSTEP =     2000   TIME(PS) =     204.000  TEMP(K) =     1.92  PRESS =     0.0
 Etot   =         0.0000  EKtot   =         0.0000  EPtot      =        -6.2387
 BOND   =         0.0000  ANGLE   =         0.0000  DIHED      =         0.0000
 1-4 NB =         0.0000  1-4 EEL =       -27.3246  VDWAALS    =         0.0000
 EELEC  =        21.0859  EHBOND  =         0.0000  RESTRAINT  =         0.0000
 EKCMT  =         0.0000  VIRIAL  =         0.0000  VOLUME     =         0.0000
                                                    Density    =         0.0000
 DV/DL  =        -6.2387
 ------------------------------------------------------------------------------

      A V E R A G E S   O V E R    1000 S T E P S

 NSTEP =   500000   TIME(PS) =    1200.000  TEMP(K) =   300.53  PRESS =    28.3
 Etot   =    -54069.8125  EKtot   =     12515.6937  EPtot      =    -66585.5062
 BOND   =         1.0631  ANGLE   =         5.6910  DIHED      =         1.6569
 1-4 NB =         0.2372  1-4 EEL =        19.3420  VDWAALS    =      9985.5398
 EELEC  =    -76599.0361  EHBOND  =         0.0000  RESTRAINT  =         0.0000
 EKCMT  =      6270.2082  VIRIAL  =      6140.5124  VOLUME     =    212608.7337
                                                    Density    =         0.9828
 DV/DL  =        -6.3947
 ------------------------------------------------------------------------------

      R M S  F L U C T U A T I O N S

 NSTEP =   500000   TIME(PS) =    1200.000  TEMP(K) =     1.69  PRESS =   114.9
 Etot   =        84.0048  EKtot   =        70.4963  EPtot      =        84.9270
 BOND   =         0.8773  ANGLE   =         1.8895  DIHED      =         1.0407
 1-4 NB =         0.2547  1-4 EEL =         0.6256  VDWAALS    =       106.5538
 EELEC  =       136.7055  EHBOND  =         0.0000  RESTRAINT  =         0.0000
 EKCMT  =        53.7896  VIRIAL  =       528.5385  VOLUME     =        50.9895
                                                    Density    =         0.0002
 DV/DL  =         2.9782
 ------------------------------------------------------------------------------

      A V E R A G E S   O V E R    1000 S T E P S

 NSTEP =   500000   TIME(PS) =    1200.000  TEMP(K) =   300.53  PRESS =    28.3
 Etot   =    -54069.8125  EKtot   =     12515.6937  EPtot      =    -66585.5062
 BOND   =         1.0631  ANGLE   =         5.6910  DIHED      =         1.6569
 1-4 NB =         0.2372  1-4 EEL =        19.3420  VDWAALS    =      9985.5398
 EELEC  =    -76599.0361  EHBOND  =         0.0000  RESTRAINT  =         0.0000
 EKCMT  =      6270.2082  VIRIAL  =      6140.5124  VOLUME     =    212608.7337
                                                    Density    =         0.9828
 DV/DL  =        -6.3947
 ------------------------------------------------------------------------------

      R M S  F L U C T U A T I O N S

 NSTEP =   500000   TIME(PS) =    1200.000  TEMP(K) =     1.69  PRESS =   114.9
 Etot   =        84.0048  EKtot   =        70.4963  EPtot      =        84.9270
 BOND   =         0.8773  ANGLE   =         1.8895  DIHED      =         1.0407
 1-4 NB =         0.2547  1-4 EEL =         0.6256  VDWAALS    =       106.5538
 EELEC  =       136.7055  EHBOND  =         0.0000  RESTRAINT  =         0.0000
 EKCMT  =        53.7896  VIRIAL  =       528.5385  VOLUME     =        50.9895
                                                    Density    =         0.0002
 DV/DL  =         2.9782
 ------------------------------------------------------------------------------

      DV/DL, AVERAGES OVER    1000 STEPS

 NSTEP =   500000   TIME(PS) =    1200.000  TEMP(K) =     1.69  PRESS =     0.0
 Etot   =         0.0000  EKtot   =         0.0000  EPtot      =        -6.3947
 BOND   =         0.0000  ANGLE   =         0.0000  DIHED      =         0.0000
 1-4 NB =         0.0000  1-4 EEL =       -28.2811  VDWAALS    =         0.0000
 EELEC  =        21.8864  EHBOND  =         0.0000  RESTRAINT  =         0.0000
 EKCMT  =         0.0000  VIRIAL  =         0.0000  VOLUME     =         0.0000
                                                    Density    =         0.0000
 DV/DL  =        -6.3947
 ------------------------------------------------------------------------------

      A V E R A G E S   O V E R  500000 S T E P S

 NSTEP =   500000   TIME(PS) =    1200.000  TEMP(K) =   300.08  PRESS =    -8.8
 Etot   =    -54077.9458  EKtot   =     12496.9806  EPtot      =    -66574.9265
 BOND   =         0.9231  ANGLE   =         4.7899  DIHED      =         1.1006
 1-4 NB =         0.2955  1-4 EEL =        21.5395  VDWAALS    =      9954.1994
 EELEC  =    -76557.7745  EHBOND  =         0.0000  RESTRAINT  =         0.0000
 EKCMT  =      6263.9933  VIRIAL  =      6306.3072  VOLUME     =    212745.0114
                                                    Density    =         0.9822
 DV/DL  =        -5.4684
 ------------------------------------------------------------------------------

      R M S  F L U C T U A T I O N S

 NSTEP =   500000   TIME(PS) =    1200.000  TEMP(K) =     2.05  PRESS =   144.9
 Etot   =       172.7762  EKtot   =        85.3548  EPtot      =       148.6237
 BOND   =         0.7548  ANGLE   =         1.6969  DIHED      =         0.7861
 1-4 NB =         0.3406  1-4 EEL =         3.7993  VDWAALS    =       128.2166
 EELEC  =       227.6050  EHBOND  =         0.0000  RESTRAINT  =         0.0000
 EKCMT  =        60.7496  VIRIAL  =       673.0527  VOLUME     =      1418.8552
                                                    Density    =         0.0062
 DV/DL  =         3.4241
 ------------------------------------------------------------------------------

      A V E R A G E S   O V E R  500000 S T E P S

 NSTEP =   500000   TIME(PS) =    1200.000  TEMP(K) =   300.08  PRESS =    -8.8
 Etot   =    -54077.9458  EKtot   =     12496.9806  EPtot      =    -66574.9265
 BOND   =         0.9231  ANGLE   =         4.7899  DIHED      =         1.1006
 1-4 NB =         0.2955  1-4 EEL =        21.5395  VDWAALS    =      9954.1994
 EELEC  =    -76557.7745  EHBOND  =         0.0000  RESTRAINT  =         0.0000
 EKCMT  =      6263.9933  VIRIAL  =      6306.3072  VOLUME     =    212745.0114
                                                    Density    =         0.9822
 DV/DL  =        -5.4684
 ------------------------------------------------------------------------------

      R M S  F L U C T U A T I O N S

 NSTEP =   500000   TIME(PS) =    1200.000  TEMP(K) =     2.05  PRESS =   144.9
 Etot   =       172.7762  EKtot   =        85.3548  EPtot      =       148.6237
 BOND   =         0.7548  ANGLE   =         1.6969  DIHED      =         0.7861
 1-4 NB =         0.3406  1-4 EEL =         3.7993  VDWAALS    =       128.2166
 EELEC  =       227.6050  EHBOND  =         0.0000  RESTRAINT  =         0.0000
 EKCMT  =        60.7496  VIRIAL  =       673.0527  VOLUME     =      1418.8552
                                                    Density    =         0.0062
 DV/DL  =         3.4241
 ------------------------------------------------------------------------------

      DV/DL, AVERAGES OVER  500000 STEPS

 NSTEP =   500000   TIME(PS) =    1200.000  TEMP(K) =     2.05  PRESS =     0.0
 Etot   =         0.0000  EKtot   =         0.0000  EPtot      =        -5.4684
 BOND   =         0.0000  ANGLE   =         0.0000  DIHED      =         0.0000
 1-4 NB =         0.0000  1-4 EEL =       -31.4941  VDWAALS    =         0.0000
 EELEC  =        26.0257  EHBOND  =         0.0000  RESTRAINT  =         0.0000
 EKCMT  =         0.0000  VIRIAL  =         0.0000  VOLUME     =         0.0000
                                                    Density    =         0.0000
 DV/DL  =        -5.4684
 ------------------------------------------------------------------------------
