-------------------------------------------------------
          Amber 18 PMEMD                              2018
          -------------------------------------------------------

  [-O]verwriting output

File Assignments:

 Here is the input file:

 &cntrl
   nstlim=500000, nscm=1000,
   ntx=5, irest=1, ntpr=1000,
   tempi=300.0, temp0=300.0, ntt=3, gamma_ln=2.0,
   ntp=1, pres0=1.01325, taup=5.0,
   ntb=2, igb=0, cut=10.0,
   dt=0.002, ig=-1,
   ntc=2, ntf=2,
   iwrap=0,
   ntwr=1000, ntwx=50000, ntave=1000,
   ioutfm=1, ntwv=-1,
   ifsc = 0, icfe=1,
   clambda=0.56262,
   timask1=':1',
   timask2=':2', crgmask = ':2',
/

Note: ig = -1. Setting random seed to   951563 based on wallclock time in
      microseconds.

--------------------------------------------------------------------------------
   1.  RESOURCE   USE:
--------------------------------------------------------------------------------

 getting box info from netcdf restart file
 NATOM  =   20967 NTYPES =       6 NBONH =   20959 MBONA  =       6
 NTHETH =      32 MTHETA =       4 NPHIH =      40 MPHIA  =       2
 NHPARM =       0 NPARM  =       0 NNB   =   28026 NRES   =    6983
 NBONA  =       6 NTHETA =       4 NPHIA =       2 NUMBND =       6
 NUMANG =       6 NPTRA  =       2 NATYP =       6 NPHB   =       1
 IFBOX  =       2 NMXRS  =      12 IFCAP =       0 NEXTRA =       0
 NCOPY  =       0

     BOX TYPE: TRUNCATED OCTAHEDRON

--------------------------------------------------------------------------------
   2.  CONTROL  DATA  FOR  THE  RUN
--------------------------------------------------------------------------------

default_name

General flags:
     imin    =       0, nmropt  =       0

Nature and format of input:
     ntx     =       5, irest   =       1, ntrx    =       1

Nature and format of output:
     ntxo    =       2, ntpr    =    1000, ntrx    =       1, ntwr    =    1000
     iwrap   =       0, ntwx    =   50000, ntwv    =      -1, ntwe    =       0
     ioutfm  =       1, ntwprt  =       0, idecomp =       0, rbornstat=      0

Potential function:
     ntf     =       2, ntb     =       2, igb     =       0, nsnb    =      25
     ipol    =       0, gbsa    =       0, iesp    =       0
     dielc   =   1.00000, cut     =  10.00000, intdiel =   1.00000

Frozen or restrained atoms:
     ibelly  =       0, ntr     =       0

Molecular dynamics:
     nstlim  =    500000, nscm    =      1000, nrespa  =         1
     t       =   0.00000, dt      =   0.00200, vlimit  =  -1.00000

Langevin dynamics temperature regulation:
     ig      =  951563
     temp0   = 300.00000, tempi   = 300.00000, gamma_ln=   2.00000

Pressure regulation:
     ntp     =       1
     pres0   =   1.01325, comp    =  44.60000, taup    =   5.00000

SHAKE:
     ntc     =       2, jfastw  =       0
     tol     =   0.00001

Free energy options:
     icfe    =       1, ifsc    =       0, klambda =       1
     clambda =  0.5626, scalpha =  0.5000, scbeta  = 12.0000
     sceeorder =       2
     dynlmb =  0.0000 logdvdl =       0

Ewald parameters:
     verbose =       0, ew_type =       0, nbflag  =       1, use_pme =       1
     vdwmeth =       1, eedmeth =       1, netfrc  =       1
     Box X =   67.054   Box Y =   67.054   Box Z =   67.054
     Alpha =  109.471   Beta  =  109.471   Gamma =  109.471
     NFFT1 =   64       NFFT2 =   64       NFFT3 =   64
     Cutoff=   10.000   Tol   =0.100E-04
     Ewald Coefficient =  0.27511
     Interpolation order =    4
     TI Mask 1 :1; matches     12 atoms
     TI Mask 2 :2; matches     12 atoms
     TI region 1:   20955 atoms
     TI region 2:   20955 atoms
Removing charge of      -0.6664 from atom      13
Removing charge of      -0.6664 from atom      14
Removing charge of      -0.0664 from atom      15
Removing charge of      -0.0664 from atom      16
Removing charge of       0.2792 from atom      17
Removing charge of       0.2802 from atom      18
Removing charge of       0.2802 from atom      19
Removing charge of       0.2792 from atom      20
Removing charge of       0.0898 from atom      21
Removing charge of       0.0837 from atom      22
Removing charge of       0.0898 from atom      23
Removing charge of       0.0837 from atom      24
Total charge of  -0.00000000 removed from      12 atoms
     Checking for mismatched coordinates.

--------------------------------------------------------------------------------
   3.  ATOMIC COORDINATES AND VELOCITIES
--------------------------------------------------------------------------------

default_name
 begin time read from input coords =   200.000 ps

 Number of triangulated 3-point waters found:     6981

     Sum of charges for TI region  1 =  -0.00000000
     Forcing neutrality...

     Sum of charges for TI region  2 =   0.00000000
     Forcing neutrality...

--------------------------------------------------------------------------------
   4.  RESULTS
 NSTEP =     1000   TIME(PS) =     202.000  TEMP(K) =   302.17  PRESS =  -597.9
 Etot   =    -52971.3290  EKtot   =     12584.2140  EPtot      =    -65555.5430
 BOND   =         3.0018  ANGLE   =         5.2944  DIHED      =         0.9522
 1-4 NB =         0.8359  1-4 EEL =        16.2577  VDWAALS    =      9697.2738
 EELEC  =    -75279.1587  EHBOND  =         0.0000  RESTRAINT  =         0.0000
 EKCMT  =      6247.7321  VIRIAL  =      9206.1850  VOLUME     =    229185.6455
                                                    Density    =         0.9117
 DV/DL  =        -7.9077
 ------------------------------------------------------------------------------

      A V E R A G E S   O V E R    1000 S T E P S

 NSTEP =     1000   TIME(PS) =     202.000  TEMP(K) =   300.58  PRESS =  -703.9
 Etot   =    -53038.1470  EKtot   =     12517.6518  EPtot      =    -65555.7987
 BOND   =         0.9691  ANGLE   =         4.3362  DIHED      =         0.8006
 1-4 NB =         0.5037  1-4 EEL =        17.0281  VDWAALS    =      9654.7340
 EELEC  =    -75234.1704  EHBOND  =         0.0000  RESTRAINT  =         0.0000
 EKCMT  =      6281.3220  VIRIAL  =      9786.5940  VOLUME     =    230563.2335
                                                    Density    =         0.9063
 DV/DL  =        -9.0013
 ------------------------------------------------------------------------------

      R M S  F L U C T U A T I O N S

 NSTEP =     1000   TIME(PS) =     202.000  TEMP(K) =     1.94  PRESS =   104.8
 Etot   =        86.8776  EKtot   =        80.6229  EPtot      =        79.3628
 BOND   =         0.7523  ANGLE   =         1.5289  DIHED      =         0.5330
 1-4 NB =         0.2998  1-4 EEL =         0.7925  VDWAALS    =        84.3482
 EELEC  =       114.2324  EHBOND  =         0.0000  RESTRAINT  =         0.0000
 EKCMT  =        52.7033  VIRIAL  =       536.1025  VOLUME     =       842.0322
                                                    Density    =         0.0033
 DV/DL  =         2.2794
 ------------------------------------------------------------------------------

      A V E R A G E S   O V E R    1000 S T E P S

 NSTEP =     1000   TIME(PS) =     202.000  TEMP(K) =   300.58  PRESS =  -703.9
 Etot   =    -53038.1470  EKtot   =     12517.6518  EPtot      =    -65555.7987
 BOND   =         0.9691  ANGLE   =         4.3362  DIHED      =         0.8006
 1-4 NB =         0.5037  1-4 EEL =        17.0281  VDWAALS    =      9654.7340
 EELEC  =    -75234.1704  EHBOND  =         0.0000  RESTRAINT  =         0.0000
 EKCMT  =      6281.3220  VIRIAL  =      9786.5940  VOLUME     =    230563.2335
                                                    Density    =         0.9063
 DV/DL  =        -9.0013
 ------------------------------------------------------------------------------

      R M S  F L U C T U A T I O N S

 NSTEP =     1000   TIME(PS) =     202.000  TEMP(K) =     1.94  PRESS =   104.8
 Etot   =        86.8776  EKtot   =        80.6229  EPtot      =        79.3628
 BOND   =         0.7523  ANGLE   =         1.5289  DIHED      =         0.5330
 1-4 NB =         0.2998  1-4 EEL =         0.7925  VDWAALS    =        84.3482
 EELEC  =       114.2324  EHBOND  =         0.0000  RESTRAINT  =         0.0000
 EKCMT  =        52.7033  VIRIAL  =       536.1025  VOLUME     =       842.0322
                                                    Density    =         0.0033
 DV/DL  =         2.2794
 ------------------------------------------------------------------------------

      DV/DL, AVERAGES OVER    1000 STEPS

 NSTEP =     1000   TIME(PS) =     202.000  TEMP(K) =     1.94  PRESS =     0.0
 Etot   =         0.0000  EKtot   =         0.0000  EPtot      =        -9.0013
 BOND   =         0.0000  ANGLE   =         0.0000  DIHED      =         0.0000
 1-4 NB =         0.0000  1-4 EEL =       -38.9320  VDWAALS    =         0.0000
 EELEC  =        29.9307  EHBOND  =         0.0000  RESTRAINT  =         0.0000
 EKCMT  =         0.0000  VIRIAL  =         0.0000  VOLUME     =         0.0000
                                                    Density    =         0.0000
 DV/DL  =        -9.0013
 ------------------------------------------------------------------------------

      A V E R A G E S   O V E R    1000 S T E P S

 NSTEP =     2000   TIME(PS) =     204.000  TEMP(K) =   301.05  PRESS =  -609.0
 Etot   =    -53084.4979  EKtot   =     12537.4201  EPtot      =    -65621.9180
 BOND   =         0.8908  ANGLE   =         4.6739  DIHED      =         1.0758
 1-4 NB =         0.5695  1-4 EEL =        17.1317  VDWAALS    =      9632.7830
 EELEC  =    -75279.0425  EHBOND  =         0.0000  RESTRAINT  =         0.0000
 EKCMT  =      6277.8575  VIRIAL  =      9275.1076  VOLUME     =    227957.9806
                                                    Density    =         0.9166
 DV/DL  =        -8.7850
 ------------------------------------------------------------------------------

      R M S  F L U C T U A T I O N S

 NSTEP =     2000   TIME(PS) =     204.000  TEMP(K) =     1.93  PRESS =   103.5
 Etot   =        94.0273  EKtot   =        80.1734  EPtot      =        99.0393
 BOND   =         0.7140  ANGLE   =         1.5105  DIHED      =         0.7537
 1-4 NB =         0.5296  1-4 EEL =         0.9809  VDWAALS    =       110.6203
 EELEC  =       146.8869  EHBOND  =         0.0000  RESTRAINT  =         0.0000
 EKCMT  =        65.1856  VIRIAL  =       511.3176  VOLUME     =       720.2934
                                                    Density    =         0.0029
 DV/DL  =         2.2739
 ------------------------------------------------------------------------------

      A V E R A G E S   O V E R    1000 S T E P S

 NSTEP =     2000   TIME(PS) =     204.000  TEMP(K) =   301.05  PRESS =  -609.0
 Etot   =    -53084.4979  EKtot   =     12537.4201  EPtot      =    -65621.9180
 BOND   =         0.8908  ANGLE   =         4.6739  DIHED      =         1.0758
 1-4 NB =         0.5695  1-4 EEL =        17.1317  VDWAALS    =      9632.7830
 EELEC  =    -75279.0425  EHBOND  =         0.0000  RESTRAINT  =         0.0000
 EKCMT  =      6277.8575  VIRIAL  =      9275.1076  VOLUME     =    227957.9806
                                                    Density    =         0.9166
 DV/DL  =        -8.7850
 ------------------------------------------------------------------------------

      R M S  F L U C T U A T I O N S

 NSTEP =     2000   TIME(PS) =     204.000  TEMP(K) =     1.93  PRESS =   103.5
 Etot   =        94.0273  EKtot   =        80.1734  EPtot      =        99.0393
 BOND   =         0.7140  ANGLE   =         1.5105  DIHED      =         0.7537
 1-4 NB =         0.5296  1-4 EEL =         0.9809  VDWAALS    =       110.6203
 EELEC  =       146.8869  EHBOND  =         0.0000  RESTRAINT  =         0.0000
 EKCMT  =        65.1856  VIRIAL  =       511.3176  VOLUME     =       720.2934
                                                    Density    =         0.0029
 DV/DL  =         2.2739
 ------------------------------------------------------------------------------

      DV/DL, AVERAGES OVER    1000 STEPS

 NSTEP =     2000   TIME(PS) =     204.000  TEMP(K) =     1.93  PRESS =     0.0
 Etot   =         0.0000  EKtot   =         0.0000  EPtot      =        -8.7850
 BOND   =         0.0000  ANGLE   =         0.0000  DIHED      =         0.0000
 1-4 NB =         0.0000  1-4 EEL =       -39.1688  VDWAALS    =         0.0000
 EELEC  =        30.3838  EHBOND  =         0.0000  RESTRAINT  =         0.0000
 EKCMT  =         0.0000  VIRIAL  =         0.0000  VOLUME     =         0.0000
                                                    Density    =         0.0000
 DV/DL  =        -8.7850
 ------------------------------------------------------------------------------

      A V E R A G E S   O V E R    1000 S T E P S

 NSTEP =   500000   TIME(PS) =    1200.000  TEMP(K) =   298.99  PRESS =   -29.3
 Etot   =    -54168.5254  EKtot   =     12451.6237  EPtot      =    -66620.1491
 BOND   =         1.0281  ANGLE   =         5.3540  DIHED      =         1.0353
 1-4 NB =         0.5370  1-4 EEL =        17.4348  VDWAALS    =      9946.3516
 EELEC  =    -76591.8899  EHBOND  =         0.0000  RESTRAINT  =         0.0000
 EKCMT  =      6234.9204  VIRIAL  =      6369.5356  VOLUME     =    212435.4063
                                                    Density    =         0.9836
 DV/DL  =        -8.4077
 ------------------------------------------------------------------------------

      R M S  F L U C T U A T I O N S

 NSTEP =   500000   TIME(PS) =    1200.000  TEMP(K) =     1.96  PRESS =   110.1
 Etot   =        98.2173  EKtot   =        81.4830  EPtot      =        93.2285
 BOND   =         0.8096  ANGLE   =         1.7318  DIHED      =         0.7097
 1-4 NB =         0.4071  1-4 EEL =         0.9982  VDWAALS    =       105.4170
 EELEC  =       153.4210  EHBOND  =         0.0000  RESTRAINT  =         0.0000
 EKCMT  =        51.5607  VIRIAL  =       513.0136  VOLUME     =        46.1942
                                                    Density    =         0.0002
 DV/DL  =         2.5534
 ------------------------------------------------------------------------------

      A V E R A G E S   O V E R    1000 S T E P S

 NSTEP =   500000   TIME(PS) =    1200.000  TEMP(K) =   298.99  PRESS =   -29.3
 Etot   =    -54168.5254  EKtot   =     12451.6237  EPtot      =    -66620.1491
 BOND   =         1.0281  ANGLE   =         5.3540  DIHED      =         1.0353
 1-4 NB =         0.5370  1-4 EEL =        17.4348  VDWAALS    =      9946.3516
 EELEC  =    -76591.8899  EHBOND  =         0.0000  RESTRAINT  =         0.0000
 EKCMT  =      6234.9204  VIRIAL  =      6369.5356  VOLUME     =    212435.4063
                                                    Density    =         0.9836
 DV/DL  =        -8.4077
 ------------------------------------------------------------------------------

      R M S  F L U C T U A T I O N S

 NSTEP =   500000   TIME(PS) =    1200.000  TEMP(K) =     1.96  PRESS =   110.1
 Etot   =        98.2173  EKtot   =        81.4830  EPtot      =        93.2285
 BOND   =         0.8096  ANGLE   =         1.7318  DIHED      =         0.7097
 1-4 NB =         0.4071  1-4 EEL =         0.9982  VDWAALS    =       105.4170
 EELEC  =       153.4210  EHBOND  =         0.0000  RESTRAINT  =         0.0000
 EKCMT  =        51.5607  VIRIAL  =       513.0136  VOLUME     =        46.1942
                                                    Density    =         0.0002
 DV/DL  =         2.5534
 ------------------------------------------------------------------------------

      DV/DL, AVERAGES OVER    1000 STEPS

 NSTEP =   500000   TIME(PS) =    1200.000  TEMP(K) =     1.96  PRESS =     0.0
 Etot   =         0.0000  EKtot   =         0.0000  EPtot      =        -8.4077
 BOND   =         0.0000  ANGLE   =         0.0000  DIHED      =         0.0000
 1-4 NB =         0.0000  1-4 EEL =       -39.8618  VDWAALS    =         0.0000
 EELEC  =        31.4542  EHBOND  =         0.0000  RESTRAINT  =         0.0000
 EKCMT  =         0.0000  VIRIAL  =         0.0000  VOLUME     =         0.0000
                                                    Density    =         0.0000
 DV/DL  =        -8.4077
 ------------------------------------------------------------------------------

      A V E R A G E S   O V E R  500000 S T E P S

 NSTEP =   500000   TIME(PS) =    1200.000  TEMP(K) =   300.01  PRESS =    -8.9
 Etot   =    -54083.8718  EKtot   =     12493.8917  EPtot      =    -66577.7635
 BOND   =         0.9352  ANGLE   =         4.9177  DIHED      =         1.1047
 1-4 NB =         0.3816  1-4 EEL =        14.6242  VDWAALS    =      9954.1642
 EELEC  =    -76553.8910  EHBOND  =         0.0000  RESTRAINT  =         0.0000
 EKCMT  =      6264.7528  VIRIAL  =      6307.7535  VOLUME     =    212779.4626
                                                    Density    =         0.9820
 DV/DL  =        -9.0991
 ------------------------------------------------------------------------------

      R M S  F L U C T U A T I O N S

 NSTEP =   500000   TIME(PS) =    1200.000  TEMP(K) =     2.07  PRESS =   143.7
 Etot   =       175.8258  EKtot   =        86.2948  EPtot      =       150.4213
 BOND   =         0.7619  ANGLE   =         1.7294  DIHED      =         0.7844
 1-4 NB =         0.4433  1-4 EEL =         2.7692  VDWAALS    =       127.8627
 EELEC  =       227.4616  EHBOND  =         0.0000  RESTRAINT  =         0.0000
 EKCMT  =        60.9706  VIRIAL  =       666.4389  VOLUME     =      1505.2135
                                                    Density    =         0.0066
 DV/DL  =         2.7970
 ------------------------------------------------------------------------------

      A V E R A G E S   O V E R  500000 S T E P S

 NSTEP =   500000   TIME(PS) =    1200.000  TEMP(K) =   300.01  PRESS =    -8.9
 Etot   =    -54083.8718  EKtot   =     12493.8917  EPtot      =    -66577.7635
 BOND   =         0.9352  ANGLE   =         4.9177  DIHED      =         1.1047
 1-4 NB =         0.3816  1-4 EEL =        14.6242  VDWAALS    =      9954.1642
 EELEC  =    -76553.8910  EHBOND  =         0.0000  RESTRAINT  =         0.0000
 EKCMT  =      6264.7528  VIRIAL  =      6307.7535  VOLUME     =    212779.4626
                                                    Density    =         0.9820
 DV/DL  =        -9.0991
 ------------------------------------------------------------------------------

      R M S  F L U C T U A T I O N S

 NSTEP =   500000   TIME(PS) =    1200.000  TEMP(K) =     2.07  PRESS =   143.7
 Etot   =       175.8258  EKtot   =        86.2948  EPtot      =       150.4213
 BOND   =         0.7619  ANGLE   =         1.7294  DIHED      =         0.7844
 1-4 NB =         0.4433  1-4 EEL =         2.7692  VDWAALS    =       127.8627
 EELEC  =       227.4616  EHBOND  =         0.0000  RESTRAINT  =         0.0000
 EKCMT  =        60.9706  VIRIAL  =       666.4389  VOLUME     =      1505.2135
                                                    Density    =         0.0066
 DV/DL  =         2.7970
 ------------------------------------------------------------------------------

      DV/DL, AVERAGES OVER  500000 STEPS

 NSTEP =   500000   TIME(PS) =    1200.000  TEMP(K) =     2.07  PRESS =     0.0
 Etot   =         0.0000  EKtot   =         0.0000  EPtot      =        -9.0991
 BOND   =         0.0000  ANGLE   =         0.0000  DIHED      =         0.0000
 1-4 NB =         0.0000  1-4 EEL =       -33.4360  VDWAALS    =         0.0000
 EELEC  =        24.3368  EHBOND  =         0.0000  RESTRAINT  =         0.0000
 EKCMT  =         0.0000  VIRIAL  =         0.0000  VOLUME     =         0.0000
                                                    Density    =         0.0000
 DV/DL  =        -9.0991
 ------------------------------------------------------------------------------
