-------------------------------------------------------
          Amber 18 PMEMD                              2018
          -------------------------------------------------------

  [-O]verwriting output

File Assignments:

 Here is the input file:

 &cntrl
   nstlim=500000, nscm=1000,
   ntx=5, irest=1, ntpr=1000,
   tempi=300.0, temp0=300.0, ntt=3, gamma_ln=2.0,
   ntp=1, pres0=1.01325, taup=5.0,
   ntb=2, igb=0, cut=10.0,
   dt=0.002, ig=-1,
   ntc=2, ntf=2,
   iwrap=0,
   ntwr=1000, ntwx=50000, ntave=1000,
   ioutfm=1, ntwv=-1,
   ifsc = 0, icfe=1,
   clambda=0.68392,
   timask1=':1',
   timask2=':2', crgmask = ':2',
/

Note: ig = -1. Setting random seed to   478254 based on wallclock time in
      microseconds.

--------------------------------------------------------------------------------
   1.  RESOURCE   USE:
--------------------------------------------------------------------------------

 getting box info from netcdf restart file
 NATOM  =   20967 NTYPES =       6 NBONH =   20959 MBONA  =       6
 NTHETH =      32 MTHETA =       4 NPHIH =      40 MPHIA  =       2
 NHPARM =       0 NPARM  =       0 NNB   =   28026 NRES   =    6983
 NBONA  =       6 NTHETA =       4 NPHIA =       2 NUMBND =       6
 NUMANG =       6 NPTRA  =       2 NATYP =       6 NPHB   =       1
 IFBOX  =       2 NMXRS  =      12 IFCAP =       0 NEXTRA =       0
 NCOPY  =       0

     BOX TYPE: TRUNCATED OCTAHEDRON

--------------------------------------------------------------------------------
   2.  CONTROL  DATA  FOR  THE  RUN
--------------------------------------------------------------------------------

default_name

General flags:
     imin    =       0, nmropt  =       0

Nature and format of input:
     ntx     =       5, irest   =       1, ntrx    =       1

Nature and format of output:
     ntxo    =       2, ntpr    =    1000, ntrx    =       1, ntwr    =    1000
     iwrap   =       0, ntwx    =   50000, ntwv    =      -1, ntwe    =       0
     ioutfm  =       1, ntwprt  =       0, idecomp =       0, rbornstat=      0

Potential function:
     ntf     =       2, ntb     =       2, igb     =       0, nsnb    =      25
     ipol    =       0, gbsa    =       0, iesp    =       0
     dielc   =   1.00000, cut     =  10.00000, intdiel =   1.00000

Frozen or restrained atoms:
     ibelly  =       0, ntr     =       0

Molecular dynamics:
     nstlim  =    500000, nscm    =      1000, nrespa  =         1
     t       =   0.00000, dt      =   0.00200, vlimit  =  -1.00000

Langevin dynamics temperature regulation:
     ig      =  478254
     temp0   = 300.00000, tempi   = 300.00000, gamma_ln=   2.00000

Pressure regulation:
     ntp     =       1
     pres0   =   1.01325, comp    =  44.60000, taup    =   5.00000

SHAKE:
     ntc     =       2, jfastw  =       0
     tol     =   0.00001

Free energy options:
     icfe    =       1, ifsc    =       0, klambda =       1
     clambda =  0.6839, scalpha =  0.5000, scbeta  = 12.0000
     sceeorder =       2
     dynlmb =  0.0000 logdvdl =       0

Ewald parameters:
     verbose =       0, ew_type =       0, nbflag  =       1, use_pme =       1
     vdwmeth =       1, eedmeth =       1, netfrc  =       1
     Box X =   67.054   Box Y =   67.054   Box Z =   67.054
     Alpha =  109.471   Beta  =  109.471   Gamma =  109.471
     NFFT1 =   64       NFFT2 =   64       NFFT3 =   64
     Cutoff=   10.000   Tol   =0.100E-04
     Ewald Coefficient =  0.27511
     Interpolation order =    4
     TI Mask 1 :1; matches     12 atoms
     TI Mask 2 :2; matches     12 atoms
     TI region 1:   20955 atoms
     TI region 2:   20955 atoms
Removing charge of      -0.6664 from atom      13
Removing charge of      -0.6664 from atom      14
Removing charge of      -0.0664 from atom      15
Removing charge of      -0.0664 from atom      16
Removing charge of       0.2792 from atom      17
Removing charge of       0.2802 from atom      18
Removing charge of       0.2802 from atom      19
Removing charge of       0.2792 from atom      20
Removing charge of       0.0898 from atom      21
Removing charge of       0.0837 from atom      22
Removing charge of       0.0898 from atom      23
Removing charge of       0.0837 from atom      24
Total charge of  -0.00000000 removed from      12 atoms
     Checking for mismatched coordinates.

--------------------------------------------------------------------------------
   3.  ATOMIC COORDINATES AND VELOCITIES
--------------------------------------------------------------------------------

default_name
 begin time read from input coords =   200.000 ps

 Number of triangulated 3-point waters found:     6981

     Sum of charges for TI region  1 =  -0.00000000
     Forcing neutrality...

     Sum of charges for TI region  2 =   0.00000000
     Forcing neutrality...

--------------------------------------------------------------------------------
   4.  RESULTS
 NSTEP =     1000   TIME(PS) =     202.000  TEMP(K) =   299.66  PRESS =  -959.6
 Etot   =    -53026.0076  EKtot   =     12479.3281  EPtot      =    -65505.3357
 BOND   =         1.4950  ANGLE   =         4.2562  DIHED      =         2.4477
 1-4 NB =         0.6796  1-4 EEL =         8.6155  VDWAALS    =      9392.8062
 EELEC  =    -74915.6359  EHBOND  =         0.0000  RESTRAINT  =         0.0000
 EKCMT  =      6233.0494  VIRIAL  =     10971.2059  VOLUME     =    228691.0665
                                                    Density    =         0.9137
 DV/DL  =        -7.7724
 ------------------------------------------------------------------------------

      A V E R A G E S   O V E R    1000 S T E P S

 NSTEP =     1000   TIME(PS) =     202.000  TEMP(K) =   300.70  PRESS =  -825.4
 Etot   =    -52911.1421  EKtot   =     12522.9465  EPtot      =    -65434.0886
 BOND   =         0.8374  ANGLE   =         3.5204  DIHED      =         1.1339
 1-4 NB =         0.1580  1-4 EEL =         8.8453  VDWAALS    =      9550.4327
 EELEC  =    -74999.0164  EHBOND  =         0.0000  RESTRAINT  =         0.0000
 EKCMT  =      6268.2541  VIRIAL  =     10373.8853  VOLUME     =    230355.7465
                                                    Density    =         0.9071
 DV/DL  =       -10.1696
 ------------------------------------------------------------------------------

      R M S  F L U C T U A T I O N S

 NSTEP =     1000   TIME(PS) =     202.000  TEMP(K) =     1.73  PRESS =   107.9
 Etot   =       111.1862  EKtot   =        72.1285  EPtot      =       107.2771
 BOND   =         0.6812  ANGLE   =         1.1613  DIHED      =         0.7688
 1-4 NB =         0.1811  1-4 EEL =         0.1939  VDWAALS    =       109.5735
 EELEC  =       176.1112  EHBOND  =         0.0000  RESTRAINT  =         0.0000
 EKCMT  =        51.1063  VIRIAL  =       532.0009  VOLUME     =       956.5487
                                                    Density    =         0.0038
 DV/DL  =         2.8534
 ------------------------------------------------------------------------------

      A V E R A G E S   O V E R    1000 S T E P S

 NSTEP =     1000   TIME(PS) =     202.000  TEMP(K) =   300.70  PRESS =  -825.4
 Etot   =    -52911.1421  EKtot   =     12522.9465  EPtot      =    -65434.0886
 BOND   =         0.8374  ANGLE   =         3.5204  DIHED      =         1.1339
 1-4 NB =         0.1580  1-4 EEL =         8.8453  VDWAALS    =      9550.4327
 EELEC  =    -74999.0164  EHBOND  =         0.0000  RESTRAINT  =         0.0000
 EKCMT  =      6268.2541  VIRIAL  =     10373.8853  VOLUME     =    230355.7465
                                                    Density    =         0.9071
 DV/DL  =       -10.1696
 ------------------------------------------------------------------------------

      R M S  F L U C T U A T I O N S

 NSTEP =     1000   TIME(PS) =     202.000  TEMP(K) =     1.73  PRESS =   107.9
 Etot   =       111.1862  EKtot   =        72.1285  EPtot      =       107.2771
 BOND   =         0.6812  ANGLE   =         1.1613  DIHED      =         0.7688
 1-4 NB =         0.1811  1-4 EEL =         0.1939  VDWAALS    =       109.5735
 EELEC  =       176.1112  EHBOND  =         0.0000  RESTRAINT  =         0.0000
 EKCMT  =        51.1063  VIRIAL  =       532.0009  VOLUME     =       956.5487
                                                    Density    =         0.0038
 DV/DL  =         2.8534
 ------------------------------------------------------------------------------

      DV/DL, AVERAGES OVER    1000 STEPS

 NSTEP =     1000   TIME(PS) =     202.000  TEMP(K) =     1.73  PRESS =     0.0
 Etot   =         0.0000  EKtot   =         0.0000  EPtot      =       -10.1696
 BOND   =         0.0000  ANGLE   =         0.0000  DIHED      =         0.0000
 1-4 NB =         0.0000  1-4 EEL =       -27.9842  VDWAALS    =         0.0000
 EELEC  =        17.8146  EHBOND  =         0.0000  RESTRAINT  =         0.0000
 EKCMT  =         0.0000  VIRIAL  =         0.0000  VOLUME     =         0.0000
                                                    Density    =         0.0000
 DV/DL  =       -10.1696
 ------------------------------------------------------------------------------

      A V E R A G E S   O V E R    1000 S T E P S

 NSTEP =     2000   TIME(PS) =     204.000  TEMP(K) =   300.65  PRESS =  -663.5
 Etot   =    -53195.6642  EKtot   =     12520.6079  EPtot      =    -65716.2721
 BOND   =         1.3535  ANGLE   =         4.7763  DIHED      =         1.0142
 1-4 NB =         0.3673  1-4 EEL =         9.6307  VDWAALS    =      9678.9754
 EELEC  =    -75412.3895  EHBOND  =         0.0000  RESTRAINT  =         0.0000
 EKCMT  =      6271.8069  VIRIAL  =      9528.4696  VOLUME     =    227221.3008
                                                    Density    =         0.9196
 DV/DL  =       -10.4822
 ------------------------------------------------------------------------------

      R M S  F L U C T U A T I O N S

 NSTEP =     2000   TIME(PS) =     204.000  TEMP(K) =     1.71  PRESS =   145.2
 Etot   =        91.2311  EKtot   =        71.1402  EPtot      =        95.5773
 BOND   =         1.0869  ANGLE   =         1.4073  DIHED      =         0.7259
 1-4 NB =         0.5885  1-4 EEL =         1.6546  VDWAALS    =       130.9015
 EELEC  =       189.4849  EHBOND  =         0.0000  RESTRAINT  =         0.0000
 EKCMT  =        51.3106  VIRIAL  =       724.7079  VOLUME     =       761.0209
                                                    Density    =         0.0031
 DV/DL  =         2.1697
 ------------------------------------------------------------------------------

      A V E R A G E S   O V E R    1000 S T E P S

 NSTEP =     2000   TIME(PS) =     204.000  TEMP(K) =   300.65  PRESS =  -663.5
 Etot   =    -53195.6642  EKtot   =     12520.6079  EPtot      =    -65716.2721
 BOND   =         1.3535  ANGLE   =         4.7763  DIHED      =         1.0142
 1-4 NB =         0.3673  1-4 EEL =         9.6307  VDWAALS    =      9678.9754
 EELEC  =    -75412.3895  EHBOND  =         0.0000  RESTRAINT  =         0.0000
 EKCMT  =      6271.8069  VIRIAL  =      9528.4696  VOLUME     =    227221.3008
                                                    Density    =         0.9196
 DV/DL  =       -10.4822
 ------------------------------------------------------------------------------

      R M S  F L U C T U A T I O N S

 NSTEP =     2000   TIME(PS) =     204.000  TEMP(K) =     1.71  PRESS =   145.2
 Etot   =        91.2311  EKtot   =        71.1402  EPtot      =        95.5773
 BOND   =         1.0869  ANGLE   =         1.4073  DIHED      =         0.7259
 1-4 NB =         0.5885  1-4 EEL =         1.6546  VDWAALS    =       130.9015
 EELEC  =       189.4849  EHBOND  =         0.0000  RESTRAINT  =         0.0000
 EKCMT  =        51.3106  VIRIAL  =       724.7079  VOLUME     =       761.0209
                                                    Density    =         0.0031
 DV/DL  =         2.1697
 ------------------------------------------------------------------------------

      DV/DL, AVERAGES OVER    1000 STEPS

 NSTEP =     2000   TIME(PS) =     204.000  TEMP(K) =     1.71  PRESS =     0.0
 Etot   =         0.0000  EKtot   =         0.0000  EPtot      =       -10.4822
 BOND   =         0.0000  ANGLE   =         0.0000  DIHED      =         0.0000
 1-4 NB =         0.0000  1-4 EEL =       -30.4692  VDWAALS    =         0.0000
 EELEC  =        19.9870  EHBOND  =         0.0000  RESTRAINT  =         0.0000
 EKCMT  =         0.0000  VIRIAL  =         0.0000  VOLUME     =         0.0000
                                                    Density    =         0.0000
 DV/DL  =       -10.4822
 ------------------------------------------------------------------------------

      A V E R A G E S   O V E R    1000 S T E P S

 NSTEP =   500000   TIME(PS) =    1200.000  TEMP(K) =   299.46  PRESS =    -8.2
 Etot   =    -54120.7348  EKtot   =     12471.0527  EPtot      =    -66591.7875
 BOND   =         0.8206  ANGLE   =         4.0657  DIHED      =         0.7027
 1-4 NB =         0.5644  1-4 EEL =        12.9503  VDWAALS    =      9969.8640
 EELEC  =    -76580.7552  EHBOND  =         0.0000  RESTRAINT  =         0.0000
 EKCMT  =      6254.4656  VIRIAL  =      6292.1441  VOLUME     =    212658.7576
                                                    Density    =         0.9826
 DV/DL  =        -9.9899
 ------------------------------------------------------------------------------

      R M S  F L U C T U A T I O N S

 NSTEP =   500000   TIME(PS) =    1200.000  TEMP(K) =     2.09  PRESS =   160.8
 Etot   =       130.5520  EKtot   =        86.9718  EPtot      =        99.4039
 BOND   =         0.6567  ANGLE   =         1.5108  DIHED      =         0.3785
 1-4 NB =         0.3392  1-4 EEL =         0.6947  VDWAALS    =       136.3541
 EELEC  =       162.5248  EHBOND  =         0.0000  RESTRAINT  =         0.0000
 EKCMT  =        63.3461  VIRIAL  =       712.7048  VOLUME     =        64.1286
                                                    Density    =         0.0003
 DV/DL  =         2.0264
 ------------------------------------------------------------------------------

      A V E R A G E S   O V E R    1000 S T E P S

 NSTEP =   500000   TIME(PS) =    1200.000  TEMP(K) =   299.46  PRESS =    -8.2
 Etot   =    -54120.7348  EKtot   =     12471.0527  EPtot      =    -66591.7875
 BOND   =         0.8206  ANGLE   =         4.0657  DIHED      =         0.7027
 1-4 NB =         0.5644  1-4 EEL =        12.9503  VDWAALS    =      9969.8640
 EELEC  =    -76580.7552  EHBOND  =         0.0000  RESTRAINT  =         0.0000
 EKCMT  =      6254.4656  VIRIAL  =      6292.1441  VOLUME     =    212658.7576
                                                    Density    =         0.9826
 DV/DL  =        -9.9899
 ------------------------------------------------------------------------------

      R M S  F L U C T U A T I O N S

 NSTEP =   500000   TIME(PS) =    1200.000  TEMP(K) =     2.09  PRESS =   160.8
 Etot   =       130.5520  EKtot   =        86.9718  EPtot      =        99.4039
 BOND   =         0.6567  ANGLE   =         1.5108  DIHED      =         0.3785
 1-4 NB =         0.3392  1-4 EEL =         0.6947  VDWAALS    =       136.3541
 EELEC  =       162.5248  EHBOND  =         0.0000  RESTRAINT  =         0.0000
 EKCMT  =        63.3461  VIRIAL  =       712.7048  VOLUME     =        64.1286
                                                    Density    =         0.0003
 DV/DL  =         2.0264
 ------------------------------------------------------------------------------

      DV/DL, AVERAGES OVER    1000 STEPS

 NSTEP =   500000   TIME(PS) =    1200.000  TEMP(K) =     2.09  PRESS =     0.0
 Etot   =         0.0000  EKtot   =         0.0000  EPtot      =        -9.9899
 BOND   =         0.0000  ANGLE   =         0.0000  DIHED      =         0.0000
 1-4 NB =         0.0000  1-4 EEL =       -40.9716  VDWAALS    =         0.0000
 EELEC  =        30.9817  EHBOND  =         0.0000  RESTRAINT  =         0.0000
 EKCMT  =         0.0000  VIRIAL  =         0.0000  VOLUME     =         0.0000
                                                    Density    =         0.0000
 DV/DL  =        -9.9899
 ------------------------------------------------------------------------------

      A V E R A G E S   O V E R  500000 S T E P S

 NSTEP =   500000   TIME(PS) =    1200.000  TEMP(K) =   300.04  PRESS =    -8.8
 Etot   =    -54079.1534  EKtot   =     12495.3458  EPtot      =    -66574.4992
 BOND   =         0.9355  ANGLE   =         4.8446  DIHED      =         1.0909
 1-4 NB =         0.4909  1-4 EEL =        11.4155  VDWAALS    =      9953.6549
 EELEC  =    -76546.9316  EHBOND  =         0.0000  RESTRAINT  =         0.0000
 EKCMT  =      6264.8059  VIRIAL  =      6307.1694  VOLUME     =    212767.7516
                                                    Density    =         0.9821
 DV/DL  =       -10.3926
 ------------------------------------------------------------------------------

      R M S  F L U C T U A T I O N S

 NSTEP =   500000   TIME(PS) =    1200.000  TEMP(K) =     2.06  PRESS =   147.9
 Etot   =       167.2779  EKtot   =        85.6153  EPtot      =       143.4776
 BOND   =         0.7693  ANGLE   =         1.7089  DIHED      =         0.7755
 1-4 NB =         0.5330  1-4 EEL =         1.9746  VDWAALS    =       128.6758
 EELEC  =       221.6555  EHBOND  =         0.0000  RESTRAINT  =         0.0000
 EKCMT  =        60.9193  VIRIAL  =       685.5156  VOLUME     =      1359.8774
                                                    Density    =         0.0059
 DV/DL  =         2.5269
 ------------------------------------------------------------------------------

      A V E R A G E S   O V E R  500000 S T E P S

 NSTEP =   500000   TIME(PS) =    1200.000  TEMP(K) =   300.04  PRESS =    -8.8
 Etot   =    -54079.1534  EKtot   =     12495.3458  EPtot      =    -66574.4992
 BOND   =         0.9355  ANGLE   =         4.8446  DIHED      =         1.0909
 1-4 NB =         0.4909  1-4 EEL =        11.4155  VDWAALS    =      9953.6549
 EELEC  =    -76546.9316  EHBOND  =         0.0000  RESTRAINT  =         0.0000
 EKCMT  =      6264.8059  VIRIAL  =      6307.1694  VOLUME     =    212767.7516
                                                    Density    =         0.9821
 DV/DL  =       -10.3926
 ------------------------------------------------------------------------------

      R M S  F L U C T U A T I O N S

 NSTEP =   500000   TIME(PS) =    1200.000  TEMP(K) =     2.06  PRESS =   147.9
 Etot   =       167.2779  EKtot   =        85.6153  EPtot      =       143.4776
 BOND   =         0.7693  ANGLE   =         1.7089  DIHED      =         0.7755
 1-4 NB =         0.5330  1-4 EEL =         1.9746  VDWAALS    =       128.6758
 EELEC  =       221.6555  EHBOND  =         0.0000  RESTRAINT  =         0.0000
 EKCMT  =        60.9193  VIRIAL  =       685.5156  VOLUME     =      1359.8774
                                                    Density    =         0.0059
 DV/DL  =         2.5269
 ------------------------------------------------------------------------------

      DV/DL, AVERAGES OVER  500000 STEPS

 NSTEP =   500000   TIME(PS) =    1200.000  TEMP(K) =     2.06  PRESS =     0.0
 Etot   =         0.0000  EKtot   =         0.0000  EPtot      =       -10.3926
 BOND   =         0.0000  ANGLE   =         0.0000  DIHED      =         0.0000
 1-4 NB =         0.0000  1-4 EEL =       -36.1159  VDWAALS    =         0.0000
 EELEC  =        25.7232  EHBOND  =         0.0000  RESTRAINT  =         0.0000
 EKCMT  =         0.0000  VIRIAL  =         0.0000  VOLUME     =         0.0000
                                                    Density    =         0.0000
 DV/DL  =       -10.3926
 ------------------------------------------------------------------------------
