-------------------------------------------------------
          Amber 18 PMEMD                              2018
          -------------------------------------------------------

  [-O]verwriting output

File Assignments:

 Here is the input file:

 &cntrl
   nstlim=500000, nscm=1000,
   ntx=5, irest=1, ntpr=1000,
   tempi=300.0, temp0=300.0, ntt=3, gamma_ln=2.0,
   ntp=1, pres0=1.01325, taup=5.0,
   ntb=2, igb=0, cut=10.0,
   dt=0.002, ig=-1,
   ntc=2, ntf=2,
   iwrap=0,
   ntwr=1000, ntwx=50000, ntave=1000,
   ioutfm=1, ntwv=-1,
   ifsc = 0, icfe=1,
   clambda=0.31608,
   timask1=':1',
   timask2=':2', crgmask = ':2',
/

Note: ig = -1. Setting random seed to   278659 based on wallclock time in
      microseconds.

--------------------------------------------------------------------------------
   1.  RESOURCE   USE:
--------------------------------------------------------------------------------

 getting box info from netcdf restart file
 NATOM  =      24 NTYPES =       6 NBONH =      16 MBONA  =       6
 NTHETH =      32 MTHETA =       4 NPHIH =      40 MPHIA  =       2
 NHPARM =       0 NPARM  =       0 NNB   =     102 NRES   =       2
 NBONA  =       6 NTHETA =       4 NPHIA =       2 NUMBND =       4
 NUMANG =       6 NPTRA  =       2 NATYP =       6 NPHB   =       1
 IFBOX  =       2 NMXRS  =      12 IFCAP =       0 NEXTRA =       0
 NCOPY  =       0

     BOX TYPE: TRUNCATED OCTAHEDRON

--------------------------------------------------------------------------------
   2.  CONTROL  DATA  FOR  THE  RUN
--------------------------------------------------------------------------------

default_name

General flags:
     imin    =       0, nmropt  =       0

Nature and format of input:
     ntx     =       5, irest   =       1, ntrx    =       1

Nature and format of output:
     ntxo    =       2, ntpr    =    1000, ntrx    =       1, ntwr    =    1000
     iwrap   =       0, ntwx    =   50000, ntwv    =      -1, ntwe    =       0
     ioutfm  =       1, ntwprt  =       0, idecomp =       0, rbornstat=      0

Potential function:
     ntf     =       2, ntb     =       2, igb     =       0, nsnb    =      25
     ipol    =       0, gbsa    =       0, iesp    =       0
     dielc   =   1.00000, cut     =  10.00000, intdiel =   1.00000

Frozen or restrained atoms:
     ibelly  =       0, ntr     =       0

Molecular dynamics:
     nstlim  =    500000, nscm    =      1000, nrespa  =         1
     t       =   0.00000, dt      =   0.00200, vlimit  =  -1.00000

Langevin dynamics temperature regulation:
     ig      =  278659
     temp0   = 300.00000, tempi   = 300.00000, gamma_ln=   2.00000

Pressure regulation:
     ntp     =       1
     pres0   =   1.01325, comp    =  44.60000, taup    =   5.00000

SHAKE:
     ntc     =       2, jfastw  =       0
     tol     =   0.00001

Free energy options:
     icfe    =       1, ifsc    =       0, klambda =       1
     clambda =  0.3161, scalpha =  0.5000, scbeta  = 12.0000
     sceeorder =       2
     dynlmb =  0.0000 logdvdl =       0

Ewald parameters:
     verbose =       0, ew_type =       0, nbflag  =       1, use_pme =       1
     vdwmeth =       1, eedmeth =       1, netfrc  =       1
     Box X =   67.054   Box Y =   67.054   Box Z =   67.054
     Alpha =  109.471   Beta  =  109.471   Gamma =  109.471
     NFFT1 =   64       NFFT2 =   64       NFFT3 =   64
     Cutoff=   10.000   Tol   =0.100E-04
     Ewald Coefficient =  0.27511
     Interpolation order =    4
     TI Mask 1 :1; matches     12 atoms
     TI Mask 2 :2; matches     12 atoms
     TI region 1:      12 atoms
     TI region 2:      12 atoms
Removing charge of      -0.6664 from atom      13
Removing charge of      -0.6664 from atom      14
Removing charge of      -0.0664 from atom      15
Removing charge of      -0.0664 from atom      16
Removing charge of       0.2792 from atom      17
Removing charge of       0.2802 from atom      18
Removing charge of       0.2802 from atom      19
Removing charge of       0.2792 from atom      20
Removing charge of       0.0898 from atom      21
Removing charge of       0.0837 from atom      22
Removing charge of       0.0898 from atom      23
Removing charge of       0.0837 from atom      24
Total charge of  -0.00000000 removed from      12 atoms
     Checking for mismatched coordinates.

--------------------------------------------------------------------------------
   3.  ATOMIC COORDINATES AND VELOCITIES
--------------------------------------------------------------------------------

default_name
 begin time read from input coords =   200.000 ps

 Number of triangulated 3-point waters found:        0

     Sum of charges for TI region  1 =  -0.00000000
     Forcing neutrality...

     Sum of charges for TI region  2 =   0.00000000
     Forcing neutrality...

--------------------------------------------------------------------------------
   4.  RESULTS
 NSTEP =     1000   TIME(PS) =     202.000  TEMP(K) =   462.89  PRESS =     1.2
 Etot   =        26.4131  EKtot   =        12.8779  EPtot      =        13.5353
 BOND   =         0.5070  ANGLE   =         2.6865  DIHED      =         1.4765
 1-4 NB =         0.2371  1-4 EEL =        26.1347  VDWAALS    =        -0.0973
 EELEC  =       -17.4091  EHBOND  =         0.0000  RESTRAINT  =         0.0000
 EKCMT  =         2.8291  VIRIAL  =        -2.9442  VOLUME     =    232085.0511
                                                    Density    =         0.0004
 DV/DL  =       -12.7582
 ------------------------------------------------------------------------------

      A V E R A G E S   O V E R    1000 S T E P S

 NSTEP =     1000   TIME(PS) =     202.000  TEMP(K) =   366.45  PRESS =     1.4
 Etot   =        26.6325  EKtot   =        10.1948  EPtot      =        16.4377
 BOND   =         1.1438  ANGLE   =         5.4634  DIHED      =         0.8505
 1-4 NB =         0.6209  1-4 EEL =        27.7732  VDWAALS    =        -0.1037
 EELEC  =       -19.3103  EHBOND  =         0.0000  RESTRAINT  =         0.0000
 EKCMT  =         3.5724  VIRIAL  =        -3.2225  VOLUME     =    232084.0065
                                                    Density    =         0.0004
 DV/DL  =       -12.3741
 ------------------------------------------------------------------------------

      R M S  F L U C T U A T I O N S

 NSTEP =     1000   TIME(PS) =     202.000  TEMP(K) =    97.37  PRESS =     0.4
 Etot   =         3.1145  EKtot   =         2.7089  EPtot      =         1.8372
 BOND   =         0.9050  ANGLE   =         1.7047  DIHED      =         0.4337
 1-4 NB =         0.4375  1-4 EEL =         1.4760  VDWAALS    =         0.0158
 EELEC  =         1.6938  EHBOND  =         0.0000  RESTRAINT  =         0.0000
 EKCMT  =         1.6761  VIRIAL  =         0.6649  VOLUME     =         0.5075
                                                    Density    =         0.0000
 DV/DL  =         0.5879
 ------------------------------------------------------------------------------

      A V E R A G E S   O V E R    1000 S T E P S

 NSTEP =     1000   TIME(PS) =     202.000  TEMP(K) =   366.45  PRESS =     1.4
 Etot   =        26.6325  EKtot   =        10.1948  EPtot      =        16.4377
 BOND   =         1.1438  ANGLE   =         5.4634  DIHED      =         0.8505
 1-4 NB =         0.6209  1-4 EEL =        27.7732  VDWAALS    =        -0.1037
 EELEC  =       -19.3103  EHBOND  =         0.0000  RESTRAINT  =         0.0000
 EKCMT  =         3.5724  VIRIAL  =        -3.2225  VOLUME     =    232084.0065
                                                    Density    =         0.0004
 DV/DL  =       -12.3741
 ------------------------------------------------------------------------------

      R M S  F L U C T U A T I O N S

 NSTEP =     1000   TIME(PS) =     202.000  TEMP(K) =    97.37  PRESS =     0.4
 Etot   =         3.1145  EKtot   =         2.7089  EPtot      =         1.8372
 BOND   =         0.9050  ANGLE   =         1.7047  DIHED      =         0.4337
 1-4 NB =         0.4375  1-4 EEL =         1.4760  VDWAALS    =         0.0158
 EELEC  =         1.6938  EHBOND  =         0.0000  RESTRAINT  =         0.0000
 EKCMT  =         1.6761  VIRIAL  =         0.6649  VOLUME     =         0.5075
                                                    Density    =         0.0000
 DV/DL  =         0.5879
 ------------------------------------------------------------------------------

      DV/DL, AVERAGES OVER    1000 STEPS

 NSTEP =     1000   TIME(PS) =     202.000  TEMP(K) =    97.37  PRESS =     0.0
 Etot   =         0.0000  EKtot   =         0.0000  EPtot      =       -12.3741
 BOND   =         0.0000  ANGLE   =         0.0000  DIHED      =         0.0000
 1-4 NB =         0.0000  1-4 EEL =       -40.6089  VDWAALS    =         0.0000
 EELEC  =        28.2348  EHBOND  =         0.0000  RESTRAINT  =         0.0000
 EKCMT  =         0.0000  VIRIAL  =         0.0000  VOLUME     =         0.0000
                                                    Density    =         0.0000
 DV/DL  =       -12.3741
 ------------------------------------------------------------------------------

      A V E R A G E S   O V E R    1000 S T E P S

 NSTEP =     2000   TIME(PS) =     204.000  TEMP(K) =   306.03  PRESS =     0.9
 Etot   =        24.7132  EKtot   =         8.5141  EPtot      =        16.1992
 BOND   =         0.9291  ANGLE   =         5.4223  DIHED      =         0.8841
 1-4 NB =         0.6607  1-4 EEL =        28.0774  VDWAALS    =        -0.1036
 EELEC  =       -19.6709  EHBOND  =         0.0000  RESTRAINT  =         0.0000
 EKCMT  =         1.4763  VIRIAL  =        -2.9440  VOLUME     =    232084.8687
                                                    Density    =         0.0004
 DV/DL  =       -12.2917
 ------------------------------------------------------------------------------

      R M S  F L U C T U A T I O N S

 NSTEP =     2000   TIME(PS) =     204.000  TEMP(K) =    68.85  PRESS =     0.2
 Etot   =         2.1767  EKtot   =         1.9156  EPtot      =         1.8339
 BOND   =         0.6766  ANGLE   =         1.6088  DIHED      =         0.4379
 1-4 NB =         0.5214  1-4 EEL =         1.1493  VDWAALS    =         0.0230
 EELEC  =         1.3813  EHBOND  =         0.0000  RESTRAINT  =         0.0000
 EKCMT  =         0.7262  VIRIAL  =         1.0410  VOLUME     =         0.1988
                                                    Density    =         0.0000
 DV/DL  =         0.5700
 ------------------------------------------------------------------------------

      A V E R A G E S   O V E R    1000 S T E P S

 NSTEP =     2000   TIME(PS) =     204.000  TEMP(K) =   306.03  PRESS =     0.9
 Etot   =        24.7132  EKtot   =         8.5141  EPtot      =        16.1992
 BOND   =         0.9291  ANGLE   =         5.4223  DIHED      =         0.8841
 1-4 NB =         0.6607  1-4 EEL =        28.0774  VDWAALS    =        -0.1036
 EELEC  =       -19.6709  EHBOND  =         0.0000  RESTRAINT  =         0.0000
 EKCMT  =         1.4763  VIRIAL  =        -2.9440  VOLUME     =    232084.8687
                                                    Density    =         0.0004
 DV/DL  =       -12.2917
 ------------------------------------------------------------------------------

      R M S  F L U C T U A T I O N S

 NSTEP =     2000   TIME(PS) =     204.000  TEMP(K) =    68.85  PRESS =     0.2
 Etot   =         2.1767  EKtot   =         1.9156  EPtot      =         1.8339
 BOND   =         0.6766  ANGLE   =         1.6088  DIHED      =         0.4379
 1-4 NB =         0.5214  1-4 EEL =         1.1493  VDWAALS    =         0.0230
 EELEC  =         1.3813  EHBOND  =         0.0000  RESTRAINT  =         0.0000
 EKCMT  =         0.7262  VIRIAL  =         1.0410  VOLUME     =         0.1988
                                                    Density    =         0.0000
 DV/DL  =         0.5700
 ------------------------------------------------------------------------------

      DV/DL, AVERAGES OVER    1000 STEPS

 NSTEP =     2000   TIME(PS) =     204.000  TEMP(K) =    68.85  PRESS =     0.0
 Etot   =         0.0000  EKtot   =         0.0000  EPtot      =       -12.2917
 BOND   =         0.0000  ANGLE   =         0.0000  DIHED      =         0.0000
 1-4 NB =         0.0000  1-4 EEL =       -41.0536  VDWAALS    =         0.0000
 EELEC  =        28.7619  EHBOND  =         0.0000  RESTRAINT  =         0.0000
 EKCMT  =         0.0000  VIRIAL  =         0.0000  VOLUME     =         0.0000
                                                    Density    =         0.0000
 DV/DL  =       -12.2917
 ------------------------------------------------------------------------------

      A V E R A G E S   O V E R    1000 S T E P S

 NSTEP =   500000   TIME(PS) =    1200.000  TEMP(K) =   311.33  PRESS =     0.9
 Etot   =        24.7449  EKtot   =         8.6613  EPtot      =        16.0836
 BOND   =         1.1385  ANGLE   =         5.0647  DIHED      =         0.8800
 1-4 NB =         0.6154  1-4 EEL =        27.7132  VDWAALS    =        -0.1025
 EELEC  =       -19.2256  EHBOND  =         0.0000  RESTRAINT  =         0.0000
 EKCMT  =         1.5927  VIRIAL  =        -2.9710  VOLUME     =    231855.5125
                                                    Density    =         0.0004
 DV/DL  =       -12.4102
 ------------------------------------------------------------------------------

      R M S  F L U C T U A T I O N S

 NSTEP =   500000   TIME(PS) =    1200.000  TEMP(K) =    61.75  PRESS =     0.3
 Etot   =         1.8002  EKtot   =         1.7180  EPtot      =         1.6682
 BOND   =         0.8123  ANGLE   =         1.4475  DIHED      =         0.5626
 1-4 NB =         0.5006  1-4 EEL =         1.5375  VDWAALS    =         0.0192
 EELEC  =         1.7477  EHBOND  =         0.0000  RESTRAINT  =         0.0000
 EKCMT  =         1.2503  VIRIAL  =         1.0488  VOLUME     =         0.1014
                                                    Density    =         0.0000
 DV/DL  =         0.6618
 ------------------------------------------------------------------------------

      A V E R A G E S   O V E R    1000 S T E P S

 NSTEP =   500000   TIME(PS) =    1200.000  TEMP(K) =   311.33  PRESS =     0.9
 Etot   =        24.7449  EKtot   =         8.6613  EPtot      =        16.0836
 BOND   =         1.1385  ANGLE   =         5.0647  DIHED      =         0.8800
 1-4 NB =         0.6154  1-4 EEL =        27.7132  VDWAALS    =        -0.1025
 EELEC  =       -19.2256  EHBOND  =         0.0000  RESTRAINT  =         0.0000
 EKCMT  =         1.5927  VIRIAL  =        -2.9710  VOLUME     =    231855.5125
                                                    Density    =         0.0004
 DV/DL  =       -12.4102
 ------------------------------------------------------------------------------

      R M S  F L U C T U A T I O N S

 NSTEP =   500000   TIME(PS) =    1200.000  TEMP(K) =    61.75  PRESS =     0.3
 Etot   =         1.8002  EKtot   =         1.7180  EPtot      =         1.6682
 BOND   =         0.8123  ANGLE   =         1.4475  DIHED      =         0.5626
 1-4 NB =         0.5006  1-4 EEL =         1.5375  VDWAALS    =         0.0192
 EELEC  =         1.7477  EHBOND  =         0.0000  RESTRAINT  =         0.0000
 EKCMT  =         1.2503  VIRIAL  =         1.0488  VOLUME     =         0.1014
                                                    Density    =         0.0000
 DV/DL  =         0.6618
 ------------------------------------------------------------------------------

      DV/DL, AVERAGES OVER    1000 STEPS

 NSTEP =   500000   TIME(PS) =    1200.000  TEMP(K) =    61.75  PRESS =     0.0
 Etot   =         0.0000  EKtot   =         0.0000  EPtot      =       -12.4102
 BOND   =         0.0000  ANGLE   =         0.0000  DIHED      =         0.0000
 1-4 NB =         0.0000  1-4 EEL =       -40.5211  VDWAALS    =         0.0000
 EELEC  =        28.1109  EHBOND  =         0.0000  RESTRAINT  =         0.0000
 EKCMT  =         0.0000  VIRIAL  =         0.0000  VOLUME     =         0.0000
                                                    Density    =         0.0000
 DV/DL  =       -12.4102
 ------------------------------------------------------------------------------

      A V E R A G E S   O V E R  500000 S T E P S

 NSTEP =   500000   TIME(PS) =    1200.000  TEMP(K) =   300.49  PRESS =     0.9
 Etot   =        24.5795  EKtot   =         8.3599  EPtot      =        16.2196
 BOND   =         0.9520  ANGLE   =         4.9125  DIHED      =         1.1305
 1-4 NB =         0.4022  1-4 EEL =        23.4254  VDWAALS    =        -0.0745
 EELEC  =       -14.5285  EHBOND  =         0.0000  RESTRAINT  =         0.0000
 EKCMT  =         1.7861  VIRIAL  =        -2.7357  VOLUME     =    231965.6479
                                                    Density    =         0.0004
 DV/DL  =       -13.0086
 ------------------------------------------------------------------------------

      R M S  F L U C T U A T I O N S

 NSTEP =   500000   TIME(PS) =    1200.000  TEMP(K) =    80.24  PRESS =     0.3
 Etot   =         3.0800  EKtot   =         2.2324  EPtot      =         2.1324
 BOND   =         0.7744  ANGLE   =         1.7165  DIHED      =         0.7885
 1-4 NB =         0.4332  1-4 EEL =         4.3196  VDWAALS    =         0.0359
 EELEC  =         4.5158  EHBOND  =         0.0000  RESTRAINT  =         0.0000
 EKCMT  =         1.4430  VIRIAL  =         0.8853  VOLUME     =        70.7338
                                                    Density    =         0.0000
 DV/DL  =         0.7026
 ------------------------------------------------------------------------------

      A V E R A G E S   O V E R  500000 S T E P S

 NSTEP =   500000   TIME(PS) =    1200.000  TEMP(K) =   300.49  PRESS =     0.9
 Etot   =        24.5795  EKtot   =         8.3599  EPtot      =        16.2196
 BOND   =         0.9520  ANGLE   =         4.9125  DIHED      =         1.1305
 1-4 NB =         0.4022  1-4 EEL =        23.4254  VDWAALS    =        -0.0745
 EELEC  =       -14.5285  EHBOND  =         0.0000  RESTRAINT  =         0.0000
 EKCMT  =         1.7861  VIRIAL  =        -2.7357  VOLUME     =    231965.6479
                                                    Density    =         0.0004
 DV/DL  =       -13.0086
 ------------------------------------------------------------------------------

      R M S  F L U C T U A T I O N S

 NSTEP =   500000   TIME(PS) =    1200.000  TEMP(K) =    80.24  PRESS =     0.3
 Etot   =         3.0800  EKtot   =         2.2324  EPtot      =         2.1324
 BOND   =         0.7744  ANGLE   =         1.7165  DIHED      =         0.7885
 1-4 NB =         0.4332  1-4 EEL =         4.3196  VDWAALS    =         0.0359
 EELEC  =         4.5158  EHBOND  =         0.0000  RESTRAINT  =         0.0000
 EKCMT  =         1.4430  VIRIAL  =         0.8853  VOLUME     =        70.7338
                                                    Density    =         0.0000
 DV/DL  =         0.7026
 ------------------------------------------------------------------------------

      DV/DL, AVERAGES OVER  500000 STEPS

 NSTEP =   500000   TIME(PS) =    1200.000  TEMP(K) =    80.24  PRESS =     0.0
 Etot   =         0.0000  EKtot   =         0.0000  EPtot      =       -13.0086
 BOND   =         0.0000  ANGLE   =         0.0000  DIHED      =         0.0000
 1-4 NB =         0.0000  1-4 EEL =       -34.2516  VDWAALS    =         0.0000
 EELEC  =        21.2431  EHBOND  =         0.0000  RESTRAINT  =         0.0000
 EKCMT  =         0.0000  VIRIAL  =         0.0000  VOLUME     =         0.0000
                                                    Density    =         0.0000
 DV/DL  =       -13.0086
 ------------------------------------------------------------------------------
