-------------------------------------------------------
          Amber 18 PMEMD                              2018
          -------------------------------------------------------

  [-O]verwriting output

File Assignments:

 Here is the input file:

 &cntrl
   nstlim=500000, nscm=1000,
   ntx=5, irest=1, ntpr=1000,
   tempi=300.0, temp0=300.0, ntt=3, gamma_ln=2.0,
   ntp=1, pres0=1.01325, taup=5.0,
   ntb=2, igb=0, cut=10.0,
   dt=0.002, ig=-1,
   ntc=2, ntf=2,
   iwrap=0,
   ntwr=1000, ntwx=50000, ntave=1000,
   ioutfm=1, ntwv=-1,
   ifsc = 0, icfe=1,
   clambda=0.88495,
   timask1=':1',
   timask2=':2', crgmask = ':2',
/

Note: ig = -1. Setting random seed to   394426 based on wallclock time in
      microseconds.

--------------------------------------------------------------------------------
   1.  RESOURCE   USE:
--------------------------------------------------------------------------------

 getting box info from netcdf restart file
 NATOM  =   20967 NTYPES =       6 NBONH =   20959 MBONA  =       6
 NTHETH =      32 MTHETA =       4 NPHIH =      40 MPHIA  =       2
 NHPARM =       0 NPARM  =       0 NNB   =   28026 NRES   =    6983
 NBONA  =       6 NTHETA =       4 NPHIA =       2 NUMBND =       6
 NUMANG =       6 NPTRA  =       2 NATYP =       6 NPHB   =       1
 IFBOX  =       2 NMXRS  =      12 IFCAP =       0 NEXTRA =       0
 NCOPY  =       0

     BOX TYPE: TRUNCATED OCTAHEDRON

--------------------------------------------------------------------------------
   2.  CONTROL  DATA  FOR  THE  RUN
--------------------------------------------------------------------------------

default_name

General flags:
     imin    =       0, nmropt  =       0

Nature and format of input:
     ntx     =       5, irest   =       1, ntrx    =       1

Nature and format of output:
     ntxo    =       2, ntpr    =    1000, ntrx    =       1, ntwr    =    1000
     iwrap   =       0, ntwx    =   50000, ntwv    =      -1, ntwe    =       0
     ioutfm  =       1, ntwprt  =       0, idecomp =       0, rbornstat=      0

Potential function:
     ntf     =       2, ntb     =       2, igb     =       0, nsnb    =      25
     ipol    =       0, gbsa    =       0, iesp    =       0
     dielc   =   1.00000, cut     =  10.00000, intdiel =   1.00000

Frozen or restrained atoms:
     ibelly  =       0, ntr     =       0

Molecular dynamics:
     nstlim  =    500000, nscm    =      1000, nrespa  =         1
     t       =   0.00000, dt      =   0.00200, vlimit  =  -1.00000

Langevin dynamics temperature regulation:
     ig      =  394426
     temp0   = 300.00000, tempi   = 300.00000, gamma_ln=   2.00000

Pressure regulation:
     ntp     =       1
     pres0   =   1.01325, comp    =  44.60000, taup    =   5.00000

SHAKE:
     ntc     =       2, jfastw  =       0
     tol     =   0.00001

Free energy options:
     icfe    =       1, ifsc    =       0, klambda =       1
     clambda =  0.8850, scalpha =  0.5000, scbeta  = 12.0000
     sceeorder =       2
     dynlmb =  0.0000 logdvdl =       0

Ewald parameters:
     verbose =       0, ew_type =       0, nbflag  =       1, use_pme =       1
     vdwmeth =       1, eedmeth =       1, netfrc  =       1
     Box X =   67.054   Box Y =   67.054   Box Z =   67.054
     Alpha =  109.471   Beta  =  109.471   Gamma =  109.471
     NFFT1 =   64       NFFT2 =   64       NFFT3 =   64
     Cutoff=   10.000   Tol   =0.100E-04
     Ewald Coefficient =  0.27511
     Interpolation order =    4
     TI Mask 1 :1; matches     12 atoms
     TI Mask 2 :2; matches     12 atoms
     TI region 1:   20955 atoms
     TI region 2:   20955 atoms
Removing charge of      -0.6664 from atom      13
Removing charge of      -0.6664 from atom      14
Removing charge of      -0.0664 from atom      15
Removing charge of      -0.0664 from atom      16
Removing charge of       0.2792 from atom      17
Removing charge of       0.2802 from atom      18
Removing charge of       0.2802 from atom      19
Removing charge of       0.2792 from atom      20
Removing charge of       0.0898 from atom      21
Removing charge of       0.0837 from atom      22
Removing charge of       0.0898 from atom      23
Removing charge of       0.0837 from atom      24
Total charge of  -0.00000000 removed from      12 atoms
     Checking for mismatched coordinates.

--------------------------------------------------------------------------------
   3.  ATOMIC COORDINATES AND VELOCITIES
--------------------------------------------------------------------------------

default_name
 begin time read from input coords =   200.000 ps

 Number of triangulated 3-point waters found:     6981

     Sum of charges for TI region  1 =  -0.00000000
     Forcing neutrality...

     Sum of charges for TI region  2 =   0.00000000
     Forcing neutrality...

--------------------------------------------------------------------------------
   4.  RESULTS
 NSTEP =     1000   TIME(PS) =     202.000  TEMP(K) =   301.90  PRESS = -1124.5
 Etot   =    -53110.3902  EKtot   =     12572.8686  EPtot      =    -65683.2588
 BOND   =         0.2890  ANGLE   =         3.0336  DIHED      =         0.6596
 1-4 NB =         0.2262  1-4 EEL =         3.3960  VDWAALS    =      9359.3982
 EELEC  =    -75050.2614  EHBOND  =         0.0000  RESTRAINT  =         0.0000
 EKCMT  =      6350.4020  VIRIAL  =     11885.3483  VOLUME     =    227965.2473
                                                    Density    =         0.9166
 DV/DL  =       -13.8941
 ------------------------------------------------------------------------------

      A V E R A G E S   O V E R    1000 S T E P S

 NSTEP =     1000   TIME(PS) =     202.000  TEMP(K) =   299.73  PRESS = -1003.7
 Etot   =    -53003.0627  EKtot   =     12482.4055  EPtot      =    -65485.4682
 BOND   =         0.7444  ANGLE   =         3.6998  DIHED      =         0.8235
 1-4 NB =         0.1385  1-4 EEL =         3.3440  VDWAALS    =      9508.1147
 EELEC  =    -75002.3330  EHBOND  =         0.0000  RESTRAINT  =         0.0000
 EKCMT  =      6266.7812  VIRIAL  =     11251.6576  VOLUME     =    229910.8909
                                                    Density    =         0.9088
 DV/DL  =       -12.4237
 ------------------------------------------------------------------------------

      R M S  F L U C T U A T I O N S

 NSTEP =     1000   TIME(PS) =     202.000  TEMP(K) =     1.79  PRESS =   152.6
 Etot   =       101.0070  EKtot   =        74.6921  EPtot      =       108.0382
 BOND   =         0.5528  ANGLE   =         1.1839  DIHED      =         0.4491
 1-4 NB =         0.1311  1-4 EEL =         0.0789  VDWAALS    =       134.1612
 EELEC  =       201.0272  EHBOND  =         0.0000  RESTRAINT  =         0.0000
 EKCMT  =        55.1863  VIRIAL  =       758.6365  VOLUME     =      1191.8545
                                                    Density    =         0.0047
 DV/DL  =         1.9092
 ------------------------------------------------------------------------------

      A V E R A G E S   O V E R    1000 S T E P S

 NSTEP =     1000   TIME(PS) =     202.000  TEMP(K) =   299.73  PRESS = -1003.7
 Etot   =    -53003.0627  EKtot   =     12482.4055  EPtot      =    -65485.4682
 BOND   =         0.7444  ANGLE   =         3.6998  DIHED      =         0.8235
 1-4 NB =         0.1385  1-4 EEL =         3.3440  VDWAALS    =      9508.1147
 EELEC  =    -75002.3330  EHBOND  =         0.0000  RESTRAINT  =         0.0000
 EKCMT  =      6266.7812  VIRIAL  =     11251.6576  VOLUME     =    229910.8909
                                                    Density    =         0.9088
 DV/DL  =       -12.4237
 ------------------------------------------------------------------------------

      R M S  F L U C T U A T I O N S

 NSTEP =     1000   TIME(PS) =     202.000  TEMP(K) =     1.79  PRESS =   152.6
 Etot   =       101.0070  EKtot   =        74.6921  EPtot      =       108.0382
 BOND   =         0.5528  ANGLE   =         1.1839  DIHED      =         0.4491
 1-4 NB =         0.1311  1-4 EEL =         0.0789  VDWAALS    =       134.1612
 EELEC  =       201.0272  EHBOND  =         0.0000  RESTRAINT  =         0.0000
 EKCMT  =        55.1863  VIRIAL  =       758.6365  VOLUME     =      1191.8545
                                                    Density    =         0.0047
 DV/DL  =         1.9092
 ------------------------------------------------------------------------------

      DV/DL, AVERAGES OVER    1000 STEPS

 NSTEP =     1000   TIME(PS) =     202.000  TEMP(K) =     1.79  PRESS =     0.0
 Etot   =         0.0000  EKtot   =         0.0000  EPtot      =       -12.4237
 BOND   =         0.0000  ANGLE   =         0.0000  DIHED      =         0.0000
 1-4 NB =         0.0000  1-4 EEL =       -29.0659  VDWAALS    =         0.0000
 EELEC  =        16.6422  EHBOND  =         0.0000  RESTRAINT  =         0.0000
 EKCMT  =         0.0000  VIRIAL  =         0.0000  VOLUME     =         0.0000
                                                    Density    =         0.0000
 DV/DL  =       -12.4237
 ------------------------------------------------------------------------------

      A V E R A G E S   O V E R    1000 S T E P S

 NSTEP =     2000   TIME(PS) =     204.000  TEMP(K) =   300.44  PRESS =  -776.0
 Etot   =    -53102.5157  EKtot   =     12511.8782  EPtot      =    -65614.3939
 BOND   =         0.6854  ANGLE   =         4.2503  DIHED      =         0.6505
 1-4 NB =         0.1416  1-4 EEL =         3.3465  VDWAALS    =      9623.2010
 EELEC  =    -75246.6692  EHBOND  =         0.0000  RESTRAINT  =         0.0000
 EKCMT  =      6277.5608  VIRIAL  =     10070.5355  VOLUME     =    226304.8763
                                                    Density    =         0.9233
 DV/DL  =       -13.7541
 ------------------------------------------------------------------------------

      R M S  F L U C T U A T I O N S

 NSTEP =     2000   TIME(PS) =     204.000  TEMP(K) =     2.21  PRESS =   158.8
 Etot   =        92.5183  EKtot   =        91.8557  EPtot      =        99.2219
 BOND   =         0.5250  ANGLE   =         1.2922  DIHED      =         0.3922
 1-4 NB =         0.1252  1-4 EEL =         0.0688  VDWAALS    =       152.6221
 EELEC  =       205.5845  EHBOND  =         0.0000  RESTRAINT  =         0.0000
 EKCMT  =        61.8491  VIRIAL  =       773.4795  VOLUME     =       906.9847
                                                    Density    =         0.0037
 DV/DL  =         1.6436
 ------------------------------------------------------------------------------

      A V E R A G E S   O V E R    1000 S T E P S

 NSTEP =     2000   TIME(PS) =     204.000  TEMP(K) =   300.44  PRESS =  -776.0
 Etot   =    -53102.5157  EKtot   =     12511.8782  EPtot      =    -65614.3939
 BOND   =         0.6854  ANGLE   =         4.2503  DIHED      =         0.6505
 1-4 NB =         0.1416  1-4 EEL =         3.3465  VDWAALS    =      9623.2010
 EELEC  =    -75246.6692  EHBOND  =         0.0000  RESTRAINT  =         0.0000
 EKCMT  =      6277.5608  VIRIAL  =     10070.5355  VOLUME     =    226304.8763
                                                    Density    =         0.9233
 DV/DL  =       -13.7541
 ------------------------------------------------------------------------------

      R M S  F L U C T U A T I O N S

 NSTEP =     2000   TIME(PS) =     204.000  TEMP(K) =     2.21  PRESS =   158.8
 Etot   =        92.5183  EKtot   =        91.8557  EPtot      =        99.2219
 BOND   =         0.5250  ANGLE   =         1.2922  DIHED      =         0.3922
 1-4 NB =         0.1252  1-4 EEL =         0.0688  VDWAALS    =       152.6221
 EELEC  =       205.5845  EHBOND  =         0.0000  RESTRAINT  =         0.0000
 EKCMT  =        61.8491  VIRIAL  =       773.4795  VOLUME     =       906.9847
                                                    Density    =         0.0037
 DV/DL  =         1.6436
 ------------------------------------------------------------------------------

      DV/DL, AVERAGES OVER    1000 STEPS

 NSTEP =     2000   TIME(PS) =     204.000  TEMP(K) =     2.21  PRESS =     0.0
 Etot   =         0.0000  EKtot   =         0.0000  EPtot      =       -13.7541
 BOND   =         0.0000  ANGLE   =         0.0000  DIHED      =         0.0000
 1-4 NB =         0.0000  1-4 EEL =       -29.0877  VDWAALS    =         0.0000
 EELEC  =        15.3336  EHBOND  =         0.0000  RESTRAINT  =         0.0000
 EKCMT  =         0.0000  VIRIAL  =         0.0000  VOLUME     =         0.0000
                                                    Density    =         0.0000
 DV/DL  =       -13.7541
 ------------------------------------------------------------------------------

      A V E R A G E S   O V E R    1000 S T E P S

 NSTEP =   500000   TIME(PS) =    1200.000  TEMP(K) =   300.39  PRESS =    32.9
 Etot   =    -54086.3739  EKtot   =     12510.0896  EPtot      =    -66596.4634
 BOND   =         0.6967  ANGLE   =         4.7489  DIHED      =         1.1687
 1-4 NB =         0.1472  1-4 EEL =         3.3547  VDWAALS    =      9986.7402
 EELEC  =    -76593.3198  EHBOND  =         0.0000  RESTRAINT  =         0.0000
 EKCMT  =      6276.0397  VIRIAL  =      6125.1655  VOLUME     =    212544.6648
                                                    Density    =         0.9831
 DV/DL  =       -13.3407
 ------------------------------------------------------------------------------

      R M S  F L U C T U A T I O N S

 NSTEP =   500000   TIME(PS) =    1200.000  TEMP(K) =     1.77  PRESS =   119.6
 Etot   =        84.9819  EKtot   =        73.8446  EPtot      =        81.1270
 BOND   =         0.5455  ANGLE   =         1.6934  DIHED      =         0.6492
 1-4 NB =         0.1522  1-4 EEL =         0.0737  VDWAALS    =       121.0319
 EELEC  =       164.4973  EHBOND  =         0.0000  RESTRAINT  =         0.0000
 EKCMT  =        44.5734  VIRIAL  =       558.1026  VOLUME     =        36.9468
                                                    Density    =         0.0002
 DV/DL  =         2.4959
 ------------------------------------------------------------------------------

      A V E R A G E S   O V E R    1000 S T E P S

 NSTEP =   500000   TIME(PS) =    1200.000  TEMP(K) =   300.39  PRESS =    32.9
 Etot   =    -54086.3739  EKtot   =     12510.0896  EPtot      =    -66596.4634
 BOND   =         0.6967  ANGLE   =         4.7489  DIHED      =         1.1687
 1-4 NB =         0.1472  1-4 EEL =         3.3547  VDWAALS    =      9986.7402
 EELEC  =    -76593.3198  EHBOND  =         0.0000  RESTRAINT  =         0.0000
 EKCMT  =      6276.0397  VIRIAL  =      6125.1655  VOLUME     =    212544.6648
                                                    Density    =         0.9831
 DV/DL  =       -13.3407
 ------------------------------------------------------------------------------

      R M S  F L U C T U A T I O N S

 NSTEP =   500000   TIME(PS) =    1200.000  TEMP(K) =     1.77  PRESS =   119.6
 Etot   =        84.9819  EKtot   =        73.8446  EPtot      =        81.1270
 BOND   =         0.5455  ANGLE   =         1.6934  DIHED      =         0.6492
 1-4 NB =         0.1522  1-4 EEL =         0.0737  VDWAALS    =       121.0319
 EELEC  =       164.4973  EHBOND  =         0.0000  RESTRAINT  =         0.0000
 EKCMT  =        44.5734  VIRIAL  =       558.1026  VOLUME     =        36.9468
                                                    Density    =         0.0002
 DV/DL  =         2.4959
 ------------------------------------------------------------------------------

      DV/DL, AVERAGES OVER    1000 STEPS

 NSTEP =   500000   TIME(PS) =    1200.000  TEMP(K) =     1.77  PRESS =     0.0
 Etot   =         0.0000  EKtot   =         0.0000  EPtot      =       -13.3407
 BOND   =         0.0000  ANGLE   =         0.0000  DIHED      =         0.0000
 1-4 NB =         0.0000  1-4 EEL =       -29.1585  VDWAALS    =         0.0000
 EELEC  =        15.8179  EHBOND  =         0.0000  RESTRAINT  =         0.0000
 EKCMT  =         0.0000  VIRIAL  =         0.0000  VOLUME     =         0.0000
                                                    Density    =         0.0000
 DV/DL  =       -13.3407
 ------------------------------------------------------------------------------

      A V E R A G E S   O V E R  500000 S T E P S

 NSTEP =   500000   TIME(PS) =    1200.000  TEMP(K) =   300.12  PRESS =    -8.8
 Etot   =    -54065.7625  EKtot   =     12498.6924  EPtot      =    -66564.4548
 BOND   =         0.9148  ANGLE   =         4.8813  DIHED      =         1.1199
 1-4 NB =         0.4016  1-4 EEL =         3.7789  VDWAALS    =      9950.2039
 EELEC  =    -76525.7553  EHBOND  =         0.0000  RESTRAINT  =         0.0000
 EKCMT  =      6267.4801  VIRIAL  =      6309.8725  VOLUME     =    212805.6428
                                                    Density    =         0.9819
 DV/DL  =       -12.5350
 ------------------------------------------------------------------------------

      R M S  F L U C T U A T I O N S

 NSTEP =   500000   TIME(PS) =    1200.000  TEMP(K) =     2.05  PRESS =   149.9
 Etot   =       170.4192  EKtot   =        85.2963  EPtot      =       147.2028
 BOND   =         0.7404  ANGLE   =         1.7047  DIHED      =         0.7941
 1-4 NB =         0.5658  1-4 EEL =         0.7089  VDWAALS    =       130.0496
 EELEC  =       227.6728  EHBOND  =         0.0000  RESTRAINT  =         0.0000
 EKCMT  =        60.9870  VIRIAL  =       697.9182  VOLUME     =      1271.3168
                                                    Density    =         0.0055
 DV/DL  =         2.3753
 ------------------------------------------------------------------------------

      A V E R A G E S   O V E R  500000 S T E P S

 NSTEP =   500000   TIME(PS) =    1200.000  TEMP(K) =   300.12  PRESS =    -8.8
 Etot   =    -54065.7625  EKtot   =     12498.6924  EPtot      =    -66564.4548
 BOND   =         0.9148  ANGLE   =         4.8813  DIHED      =         1.1199
 1-4 NB =         0.4016  1-4 EEL =         3.7789  VDWAALS    =      9950.2039
 EELEC  =    -76525.7553  EHBOND  =         0.0000  RESTRAINT  =         0.0000
 EKCMT  =      6267.4801  VIRIAL  =      6309.8725  VOLUME     =    212805.6428
                                                    Density    =         0.9819
 DV/DL  =       -12.5350
 ------------------------------------------------------------------------------

      R M S  F L U C T U A T I O N S

 NSTEP =   500000   TIME(PS) =    1200.000  TEMP(K) =     2.05  PRESS =   149.9
 Etot   =       170.4192  EKtot   =        85.2963  EPtot      =       147.2028
 BOND   =         0.7404  ANGLE   =         1.7047  DIHED      =         0.7941
 1-4 NB =         0.5658  1-4 EEL =         0.7089  VDWAALS    =       130.0496
 EELEC  =       227.6728  EHBOND  =         0.0000  RESTRAINT  =         0.0000
 EKCMT  =        60.9870  VIRIAL  =       697.9182  VOLUME     =      1271.3168
                                                    Density    =         0.0055
 DV/DL  =         2.3753
 ------------------------------------------------------------------------------

      DV/DL, AVERAGES OVER  500000 STEPS

 NSTEP =   500000   TIME(PS) =    1200.000  TEMP(K) =     2.05  PRESS =     0.0
 Etot   =         0.0000  EKtot   =         0.0000  EPtot      =       -12.5350
 BOND   =         0.0000  ANGLE   =         0.0000  DIHED      =         0.0000
 1-4 NB =         0.0000  1-4 EEL =       -32.8461  VDWAALS    =         0.0000
 EELEC  =        20.3111  EHBOND  =         0.0000  RESTRAINT  =         0.0000
 EKCMT  =         0.0000  VIRIAL  =         0.0000  VOLUME     =         0.0000
                                                    Density    =         0.0000
 DV/DL  =       -12.5350
 ------------------------------------------------------------------------------
