-------------------------------------------------------
          Amber 18 PMEMD                              2018
          -------------------------------------------------------

  [-O]verwriting output

File Assignments:

 Here is the input file:

 &cntrl
   nstlim=500000, nscm=1000,
   ntx=5, irest=1, ntpr=1000,
   tempi=300.0, temp0=300.0, ntt=3, gamma_ln=2.0,
   ntp=1, pres0=1.01325, taup=5.0,
   ntb=2, igb=0, cut=10.0,
   dt=0.002, ig=-1,
   ntc=2, ntf=2,
   iwrap=0,
   ntwr=1000, ntwx=50000, ntave=1000,
   ioutfm=1, ntwv=-1,
   ifsc = 0, icfe=1,
   clambda=0.99078,
   timask1=':1',
   timask2=':2', crgmask = ':2',
/

Note: ig = -1. Setting random seed to   754575 based on wallclock time in
      microseconds.

--------------------------------------------------------------------------------
   1.  RESOURCE   USE:
--------------------------------------------------------------------------------

 getting box info from netcdf restart file
 NATOM  =   20967 NTYPES =       6 NBONH =   20959 MBONA  =       6
 NTHETH =      32 MTHETA =       4 NPHIH =      40 MPHIA  =       2
 NHPARM =       0 NPARM  =       0 NNB   =   28026 NRES   =    6983
 NBONA  =       6 NTHETA =       4 NPHIA =       2 NUMBND =       6
 NUMANG =       6 NPTRA  =       2 NATYP =       6 NPHB   =       1
 IFBOX  =       2 NMXRS  =      12 IFCAP =       0 NEXTRA =       0
 NCOPY  =       0

     BOX TYPE: TRUNCATED OCTAHEDRON

--------------------------------------------------------------------------------
   2.  CONTROL  DATA  FOR  THE  RUN
--------------------------------------------------------------------------------

default_name

General flags:
     imin    =       0, nmropt  =       0

Nature and format of input:
     ntx     =       5, irest   =       1, ntrx    =       1

Nature and format of output:
     ntxo    =       2, ntpr    =    1000, ntrx    =       1, ntwr    =    1000
     iwrap   =       0, ntwx    =   50000, ntwv    =      -1, ntwe    =       0
     ioutfm  =       1, ntwprt  =       0, idecomp =       0, rbornstat=      0

Potential function:
     ntf     =       2, ntb     =       2, igb     =       0, nsnb    =      25
     ipol    =       0, gbsa    =       0, iesp    =       0
     dielc   =   1.00000, cut     =  10.00000, intdiel =   1.00000

Frozen or restrained atoms:
     ibelly  =       0, ntr     =       0

Molecular dynamics:
     nstlim  =    500000, nscm    =      1000, nrespa  =         1
     t       =   0.00000, dt      =   0.00200, vlimit  =  -1.00000

Langevin dynamics temperature regulation:
     ig      =  754575
     temp0   = 300.00000, tempi   = 300.00000, gamma_ln=   2.00000

Pressure regulation:
     ntp     =       1
     pres0   =   1.01325, comp    =  44.60000, taup    =   5.00000

SHAKE:
     ntc     =       2, jfastw  =       0
     tol     =   0.00001

Free energy options:
     icfe    =       1, ifsc    =       0, klambda =       1
     clambda =  0.9908, scalpha =  0.5000, scbeta  = 12.0000
     sceeorder =       2
     dynlmb =  0.0000 logdvdl =       0

Ewald parameters:
     verbose =       0, ew_type =       0, nbflag  =       1, use_pme =       1
     vdwmeth =       1, eedmeth =       1, netfrc  =       1
     Box X =   67.054   Box Y =   67.054   Box Z =   67.054
     Alpha =  109.471   Beta  =  109.471   Gamma =  109.471
     NFFT1 =   64       NFFT2 =   64       NFFT3 =   64
     Cutoff=   10.000   Tol   =0.100E-04
     Ewald Coefficient =  0.27511
     Interpolation order =    4
     TI Mask 1 :1; matches     12 atoms
     TI Mask 2 :2; matches     12 atoms
     TI region 1:   20955 atoms
     TI region 2:   20955 atoms
Removing charge of      -0.6664 from atom      13
Removing charge of      -0.6664 from atom      14
Removing charge of      -0.0664 from atom      15
Removing charge of      -0.0664 from atom      16
Removing charge of       0.2792 from atom      17
Removing charge of       0.2802 from atom      18
Removing charge of       0.2802 from atom      19
Removing charge of       0.2792 from atom      20
Removing charge of       0.0898 from atom      21
Removing charge of       0.0837 from atom      22
Removing charge of       0.0898 from atom      23
Removing charge of       0.0837 from atom      24
Total charge of  -0.00000000 removed from      12 atoms
     Checking for mismatched coordinates.

--------------------------------------------------------------------------------
   3.  ATOMIC COORDINATES AND VELOCITIES
--------------------------------------------------------------------------------

default_name
 begin time read from input coords =   200.000 ps

 Number of triangulated 3-point waters found:     6981

     Sum of charges for TI region  1 =  -0.00000000
     Forcing neutrality...

     Sum of charges for TI region  2 =   0.00000000
     Forcing neutrality...

--------------------------------------------------------------------------------
   4.  RESULTS
 NSTEP =     1000   TIME(PS) =     202.000  TEMP(K) =   300.56  PRESS =  -978.3
 Etot   =    -52824.8030  EKtot   =     12517.1149  EPtot      =    -65341.9179
 BOND   =         1.0320  ANGLE   =         7.2354  DIHED      =         0.7037
 1-4 NB =         0.3687  1-4 EEL =         0.3984  VDWAALS    =      9312.0565
 EELEC  =    -74663.7125  EHBOND  =         0.0000  RESTRAINT  =         0.0000
 EKCMT  =      6149.8694  VIRIAL  =     10981.5827  VOLUME     =    228747.5222
                                                    Density    =         0.9134
 DV/DL  =       -17.0349
 ------------------------------------------------------------------------------

      A V E R A G E S   O V E R    1000 S T E P S

 NSTEP =     1000   TIME(PS) =     202.000  TEMP(K) =   299.64  PRESS =  -811.6
 Etot   =    -53016.0197  EKtot   =     12478.6976  EPtot      =    -65494.7174
 BOND   =         1.0250  ANGLE   =         4.9086  DIHED      =         0.7544
 1-4 NB =         0.6685  1-4 EEL =         0.3853  VDWAALS    =      9603.1119
 EELEC  =    -75105.5711  EHBOND  =         0.0000  RESTRAINT  =         0.0000
 EKCMT  =      6258.5889  VIRIAL  =     10295.9879  VOLUME     =    230314.0323
                                                    Density    =         0.9072
 DV/DL  =       -12.8327
 ------------------------------------------------------------------------------

      R M S  F L U C T U A T I O N S

 NSTEP =     1000   TIME(PS) =     202.000  TEMP(K) =     2.74  PRESS =   114.3
 Etot   =       172.6575  EKtot   =       114.0908  EPtot      =       107.5836
 BOND   =         0.8226  ANGLE   =         1.4949  DIHED      =         0.4472
 1-4 NB =         0.4989  1-4 EEL =         0.0192  VDWAALS    =        84.1520
 EELEC  =       152.1918  EHBOND  =         0.0000  RESTRAINT  =         0.0000
 EKCMT  =        65.0829  VIRIAL  =       559.3354  VOLUME     =       955.0229
                                                    Density    =         0.0038
 DV/DL  =         2.6846
 ------------------------------------------------------------------------------

      A V E R A G E S   O V E R    1000 S T E P S

 NSTEP =     1000   TIME(PS) =     202.000  TEMP(K) =   299.64  PRESS =  -811.6
 Etot   =    -53016.0197  EKtot   =     12478.6976  EPtot      =    -65494.7174
 BOND   =         1.0250  ANGLE   =         4.9086  DIHED      =         0.7544
 1-4 NB =         0.6685  1-4 EEL =         0.3853  VDWAALS    =      9603.1119
 EELEC  =    -75105.5711  EHBOND  =         0.0000  RESTRAINT  =         0.0000
 EKCMT  =      6258.5889  VIRIAL  =     10295.9879  VOLUME     =    230314.0323
                                                    Density    =         0.9072
 DV/DL  =       -12.8327
 ------------------------------------------------------------------------------

      R M S  F L U C T U A T I O N S

 NSTEP =     1000   TIME(PS) =     202.000  TEMP(K) =     2.74  PRESS =   114.3
 Etot   =       172.6575  EKtot   =       114.0908  EPtot      =       107.5836
 BOND   =         0.8226  ANGLE   =         1.4949  DIHED      =         0.4472
 1-4 NB =         0.4989  1-4 EEL =         0.0192  VDWAALS    =        84.1520
 EELEC  =       152.1918  EHBOND  =         0.0000  RESTRAINT  =         0.0000
 EKCMT  =        65.0829  VIRIAL  =       559.3354  VOLUME     =       955.0229
                                                    Density    =         0.0038
 DV/DL  =         2.6846
 ------------------------------------------------------------------------------

      DV/DL, AVERAGES OVER    1000 STEPS

 NSTEP =     1000   TIME(PS) =     202.000  TEMP(K) =     2.74  PRESS =     0.0
 Etot   =         0.0000  EKtot   =         0.0000  EPtot      =       -12.8327
 BOND   =         0.0000  ANGLE   =         0.0000  DIHED      =         0.0000
 1-4 NB =         0.0000  1-4 EEL =       -41.7878  VDWAALS    =         0.0000
 EELEC  =        28.9552  EHBOND  =         0.0000  RESTRAINT  =         0.0000
 EKCMT  =         0.0000  VIRIAL  =         0.0000  VOLUME     =         0.0000
                                                    Density    =         0.0000
 DV/DL  =       -12.8327
 ------------------------------------------------------------------------------

      A V E R A G E S   O V E R    1000 S T E P S

 NSTEP =     2000   TIME(PS) =     204.000  TEMP(K) =   302.92  PRESS =  -701.3
 Etot   =    -52827.4164  EKtot   =     12615.3600  EPtot      =    -65442.7764
 BOND   =         1.0338  ANGLE   =         5.2210  DIHED      =         0.9330
 1-4 NB =         0.8770  1-4 EEL =         0.3910  VDWAALS    =      9543.6654
 EELEC  =    -74994.8976  EHBOND  =         0.0000  RESTRAINT  =         0.0000
 EKCMT  =      6331.3494  VIRIAL  =      9773.1947  VOLUME     =    227256.6920
                                                    Density    =         0.9195
 DV/DL  =       -14.5765
 ------------------------------------------------------------------------------

      R M S  F L U C T U A T I O N S

 NSTEP =     2000   TIME(PS) =     204.000  TEMP(K) =     1.69  PRESS =   108.3
 Etot   =        56.4017  EKtot   =        70.2768  EPtot      =        84.1554
 BOND   =         0.8917  ANGLE   =         1.7998  DIHED      =         0.5694
 1-4 NB =         0.8568  1-4 EEL =         0.0217  VDWAALS    =       102.9580
 EELEC  =       148.1442  EHBOND  =         0.0000  RESTRAINT  =         0.0000
 EKCMT  =        57.8241  VIRIAL  =       521.1456  VOLUME     =       810.2905
                                                    Density    =         0.0033
 DV/DL  =         2.4476
 ------------------------------------------------------------------------------

      A V E R A G E S   O V E R    1000 S T E P S

 NSTEP =     2000   TIME(PS) =     204.000  TEMP(K) =   302.92  PRESS =  -701.3
 Etot   =    -52827.4164  EKtot   =     12615.3600  EPtot      =    -65442.7764
 BOND   =         1.0338  ANGLE   =         5.2210  DIHED      =         0.9330
 1-4 NB =         0.8770  1-4 EEL =         0.3910  VDWAALS    =      9543.6654
 EELEC  =    -74994.8976  EHBOND  =         0.0000  RESTRAINT  =         0.0000
 EKCMT  =      6331.3494  VIRIAL  =      9773.1947  VOLUME     =    227256.6920
                                                    Density    =         0.9195
 DV/DL  =       -14.5765
 ------------------------------------------------------------------------------

      R M S  F L U C T U A T I O N S

 NSTEP =     2000   TIME(PS) =     204.000  TEMP(K) =     1.69  PRESS =   108.3
 Etot   =        56.4017  EKtot   =        70.2768  EPtot      =        84.1554
 BOND   =         0.8917  ANGLE   =         1.7998  DIHED      =         0.5694
 1-4 NB =         0.8568  1-4 EEL =         0.0217  VDWAALS    =       102.9580
 EELEC  =       148.1442  EHBOND  =         0.0000  RESTRAINT  =         0.0000
 EKCMT  =        57.8241  VIRIAL  =       521.1456  VOLUME     =       810.2905
                                                    Density    =         0.0033
 DV/DL  =         2.4476
 ------------------------------------------------------------------------------

      DV/DL, AVERAGES OVER    1000 STEPS

 NSTEP =     2000   TIME(PS) =     204.000  TEMP(K) =     1.69  PRESS =     0.0
 Etot   =         0.0000  EKtot   =         0.0000  EPtot      =       -14.5765
 BOND   =         0.0000  ANGLE   =         0.0000  DIHED      =         0.0000
 1-4 NB =         0.0000  1-4 EEL =       -42.4037  VDWAALS    =         0.0000
 EELEC  =        27.8271  EHBOND  =         0.0000  RESTRAINT  =         0.0000
 EKCMT  =         0.0000  VIRIAL  =         0.0000  VOLUME     =         0.0000
                                                    Density    =         0.0000
 DV/DL  =       -14.5765
 ------------------------------------------------------------------------------

      A V E R A G E S   O V E R    1000 S T E P S

 NSTEP =   500000   TIME(PS) =    1200.000  TEMP(K) =   299.07  PRESS =    -1.3
 Etot   =    -54228.7982  EKtot   =     12455.1003  EPtot      =    -66683.8984
 BOND   =         0.7081  ANGLE   =         3.9806  DIHED      =         0.8660
 1-4 NB =         0.7691  1-4 EEL =         0.3884  VDWAALS    =     10003.2762
 EELEC  =    -76693.8868  EHBOND  =         0.0000  RESTRAINT  =         0.0000
 EKCMT  =      6243.4578  VIRIAL  =      6249.5241  VOLUME     =    212718.6432
                                                    Density    =         0.9823
 DV/DL  =       -15.5372
 ------------------------------------------------------------------------------

      R M S  F L U C T U A T I O N S

 NSTEP =   500000   TIME(PS) =    1200.000  TEMP(K) =     1.61  PRESS =   113.4
 Etot   =        45.1696  EKtot   =        67.2405  EPtot      =        67.8921
 BOND   =         0.5520  ANGLE   =         1.2216  DIHED      =         0.4928
 1-4 NB =         0.6931  1-4 EEL =         0.0215  VDWAALS    =       107.9165
 EELEC  =       127.7214  EHBOND  =         0.0000  RESTRAINT  =         0.0000
 EKCMT  =        51.7261  VIRIAL  =       521.7986  VOLUME     =        15.3780
                                                    Density    =         0.0001
 DV/DL  =         2.1262
 ------------------------------------------------------------------------------

      A V E R A G E S   O V E R    1000 S T E P S

 NSTEP =   500000   TIME(PS) =    1200.000  TEMP(K) =   299.07  PRESS =    -1.3
 Etot   =    -54228.7982  EKtot   =     12455.1003  EPtot      =    -66683.8984
 BOND   =         0.7081  ANGLE   =         3.9806  DIHED      =         0.8660
 1-4 NB =         0.7691  1-4 EEL =         0.3884  VDWAALS    =     10003.2762
 EELEC  =    -76693.8868  EHBOND  =         0.0000  RESTRAINT  =         0.0000
 EKCMT  =      6243.4578  VIRIAL  =      6249.5241  VOLUME     =    212718.6432
                                                    Density    =         0.9823
 DV/DL  =       -15.5372
 ------------------------------------------------------------------------------

      R M S  F L U C T U A T I O N S

 NSTEP =   500000   TIME(PS) =    1200.000  TEMP(K) =     1.61  PRESS =   113.4
 Etot   =        45.1696  EKtot   =        67.2405  EPtot      =        67.8921
 BOND   =         0.5520  ANGLE   =         1.2216  DIHED      =         0.4928
 1-4 NB =         0.6931  1-4 EEL =         0.0215  VDWAALS    =       107.9165
 EELEC  =       127.7214  EHBOND  =         0.0000  RESTRAINT  =         0.0000
 EKCMT  =        51.7261  VIRIAL  =       521.7986  VOLUME     =        15.3780
                                                    Density    =         0.0001
 DV/DL  =         2.1262
 ------------------------------------------------------------------------------

      DV/DL, AVERAGES OVER    1000 STEPS

 NSTEP =   500000   TIME(PS) =    1200.000  TEMP(K) =     1.61  PRESS =     0.0
 Etot   =         0.0000  EKtot   =         0.0000  EPtot      =       -15.5372
 BOND   =         0.0000  ANGLE   =         0.0000  DIHED      =         0.0000
 1-4 NB =         0.0000  1-4 EEL =       -42.1256  VDWAALS    =         0.0000
 EELEC  =        26.5884  EHBOND  =         0.0000  RESTRAINT  =         0.0000
 EKCMT  =         0.0000  VIRIAL  =         0.0000  VOLUME     =         0.0000
                                                    Density    =         0.0000
 DV/DL  =       -15.5372
 ------------------------------------------------------------------------------

      A V E R A G E S   O V E R  500000 S T E P S

 NSTEP =   500000   TIME(PS) =    1200.000  TEMP(K) =   300.09  PRESS =    -8.8
 Etot   =    -54068.6352  EKtot   =     12497.6123  EPtot      =    -66566.2475
 BOND   =         0.9422  ANGLE   =         4.9713  DIHED      =         1.1471
 1-4 NB =         0.7469  1-4 EEL =         0.3519  VDWAALS    =      9952.1003
 EELEC  =    -76526.5071  EHBOND  =         0.0000  RESTRAINT  =         0.0000
 EKCMT  =      6266.8937  VIRIAL  =      6309.1336  VOLUME     =    212871.3733
                                                    Density    =         0.9816
 DV/DL  =       -13.2627
 ------------------------------------------------------------------------------

      R M S  F L U C T U A T I O N S

 NSTEP =   500000   TIME(PS) =    1200.000  TEMP(K) =     2.06  PRESS =   145.7
 Etot   =       170.8505  EKtot   =        85.9781  EPtot      =       147.6448
 BOND   =         0.7650  ANGLE   =         1.7241  DIHED      =         0.8199
 1-4 NB =         0.9638  1-4 EEL =         0.0577  VDWAALS    =       128.0664
 EELEC  =       226.6266  EHBOND  =         0.0000  RESTRAINT  =         0.0000
 EKCMT  =        60.8052  VIRIAL  =       676.9102  VOLUME     =      1356.6725
                                                    Density    =         0.0059
 DV/DL  =         2.4836
 ------------------------------------------------------------------------------

      A V E R A G E S   O V E R  500000 S T E P S

 NSTEP =   500000   TIME(PS) =    1200.000  TEMP(K) =   300.09  PRESS =    -8.8
 Etot   =    -54068.6352  EKtot   =     12497.6123  EPtot      =    -66566.2475
 BOND   =         0.9422  ANGLE   =         4.9713  DIHED      =         1.1471
 1-4 NB =         0.7469  1-4 EEL =         0.3519  VDWAALS    =      9952.1003
 EELEC  =    -76526.5071  EHBOND  =         0.0000  RESTRAINT  =         0.0000
 EKCMT  =      6266.8937  VIRIAL  =      6309.1336  VOLUME     =    212871.3733
                                                    Density    =         0.9816
 DV/DL  =       -13.2627
 ------------------------------------------------------------------------------

      R M S  F L U C T U A T I O N S

 NSTEP =   500000   TIME(PS) =    1200.000  TEMP(K) =     2.06  PRESS =   145.7
 Etot   =       170.8505  EKtot   =        85.9781  EPtot      =       147.6448
 BOND   =         0.7650  ANGLE   =         1.7241  DIHED      =         0.8199
 1-4 NB =         0.9638  1-4 EEL =         0.0577  VDWAALS    =       128.0664
 EELEC  =       226.6266  EHBOND  =         0.0000  RESTRAINT  =         0.0000
 EKCMT  =        60.8052  VIRIAL  =       676.9102  VOLUME     =      1356.6725
                                                    Density    =         0.0059
 DV/DL  =         2.4836
 ------------------------------------------------------------------------------

      DV/DL, AVERAGES OVER  500000 STEPS

 NSTEP =   500000   TIME(PS) =    1200.000  TEMP(K) =     2.06  PRESS =     0.0
 Etot   =         0.0000  EKtot   =         0.0000  EPtot      =       -13.2627
 BOND   =         0.0000  ANGLE   =         0.0000  DIHED      =         0.0000
 1-4 NB =         0.0000  1-4 EEL =       -38.1645  VDWAALS    =         0.0000
 EELEC  =        24.9018  EHBOND  =         0.0000  RESTRAINT  =         0.0000
 EKCMT  =         0.0000  VIRIAL  =         0.0000  VOLUME     =         0.0000
                                                    Density    =         0.0000
 DV/DL  =       -13.2627
 ------------------------------------------------------------------------------
