-------------------------------------------------------
          Amber 18 PMEMD                              2018
          -------------------------------------------------------

  [-O]verwriting output

File Assignments:

 Here is the input file:

 &cntrl
   nstlim=500000, nscm=1000,
   ntx=5, irest=1, ntpr=1000,
   tempi=300.0, temp0=300.0, ntt=3, gamma_ln=2.0,
   ntp=1, pres0=1.01325, taup=5.0,
   ntb=2, igb=0, cut=10.0,
   dt=0.002, ig=-1,
   ntc=2, ntf=2,
   iwrap=0,
   ntwr=1000, ntwx=50000, ntave=1000,
   ioutfm=1, ntwv=-1,
   ifsc = 0, icfe=1,
   clambda=0.79366,
   timask1=':1',
   timask2=':2', crgmask = ':2',
/

Note: ig = -1. Setting random seed to   822558 based on wallclock time in
      microseconds.

--------------------------------------------------------------------------------
   1.  RESOURCE   USE:
--------------------------------------------------------------------------------

 getting box info from netcdf restart file
 NATOM  =      24 NTYPES =       6 NBONH =      16 MBONA  =       6
 NTHETH =      32 MTHETA =       4 NPHIH =      40 MPHIA  =       2
 NHPARM =       0 NPARM  =       0 NNB   =     102 NRES   =       2
 NBONA  =       6 NTHETA =       4 NPHIA =       2 NUMBND =       4
 NUMANG =       6 NPTRA  =       2 NATYP =       6 NPHB   =       1
 IFBOX  =       2 NMXRS  =      12 IFCAP =       0 NEXTRA =       0
 NCOPY  =       0

     BOX TYPE: TRUNCATED OCTAHEDRON

--------------------------------------------------------------------------------
   2.  CONTROL  DATA  FOR  THE  RUN
--------------------------------------------------------------------------------

default_name

General flags:
     imin    =       0, nmropt  =       0

Nature and format of input:
     ntx     =       5, irest   =       1, ntrx    =       1

Nature and format of output:
     ntxo    =       2, ntpr    =    1000, ntrx    =       1, ntwr    =    1000
     iwrap   =       0, ntwx    =   50000, ntwv    =      -1, ntwe    =       0
     ioutfm  =       1, ntwprt  =       0, idecomp =       0, rbornstat=      0

Potential function:
     ntf     =       2, ntb     =       2, igb     =       0, nsnb    =      25
     ipol    =       0, gbsa    =       0, iesp    =       0
     dielc   =   1.00000, cut     =  10.00000, intdiel =   1.00000

Frozen or restrained atoms:
     ibelly  =       0, ntr     =       0

Molecular dynamics:
     nstlim  =    500000, nscm    =      1000, nrespa  =         1
     t       =   0.00000, dt      =   0.00200, vlimit  =  -1.00000

Langevin dynamics temperature regulation:
     ig      =  822558
     temp0   = 300.00000, tempi   = 300.00000, gamma_ln=   2.00000

Pressure regulation:
     ntp     =       1
     pres0   =   1.01325, comp    =  44.60000, taup    =   5.00000

SHAKE:
     ntc     =       2, jfastw  =       0
     tol     =   0.00001

Free energy options:
     icfe    =       1, ifsc    =       0, klambda =       1
     clambda =  0.7937, scalpha =  0.5000, scbeta  = 12.0000
     sceeorder =       2
     dynlmb =  0.0000 logdvdl =       0

Ewald parameters:
     verbose =       0, ew_type =       0, nbflag  =       1, use_pme =       1
     vdwmeth =       1, eedmeth =       1, netfrc  =       1
     Box X =   67.054   Box Y =   67.054   Box Z =   67.054
     Alpha =  109.471   Beta  =  109.471   Gamma =  109.471
     NFFT1 =   64       NFFT2 =   64       NFFT3 =   64
     Cutoff=   10.000   Tol   =0.100E-04
     Ewald Coefficient =  0.27511
     Interpolation order =    4
     TI Mask 1 :1; matches     12 atoms
     TI Mask 2 :2; matches     12 atoms
     TI region 1:      12 atoms
     TI region 2:      12 atoms
Removing charge of      -0.6664 from atom      13
Removing charge of      -0.6664 from atom      14
Removing charge of      -0.0664 from atom      15
Removing charge of      -0.0664 from atom      16
Removing charge of       0.2792 from atom      17
Removing charge of       0.2802 from atom      18
Removing charge of       0.2802 from atom      19
Removing charge of       0.2792 from atom      20
Removing charge of       0.0898 from atom      21
Removing charge of       0.0837 from atom      22
Removing charge of       0.0898 from atom      23
Removing charge of       0.0837 from atom      24
Total charge of  -0.00000000 removed from      12 atoms
     Checking for mismatched coordinates.

--------------------------------------------------------------------------------
   3.  ATOMIC COORDINATES AND VELOCITIES
--------------------------------------------------------------------------------

default_name
 begin time read from input coords =   200.000 ps

 Number of triangulated 3-point waters found:        0

     Sum of charges for TI region  1 =  -0.00000000
     Forcing neutrality...

     Sum of charges for TI region  2 =   0.00000000
     Forcing neutrality...

--------------------------------------------------------------------------------
   4.  RESULTS
 NSTEP =     1000   TIME(PS) =     202.000  TEMP(K) =   541.85  PRESS =     0.6
 Etot   =        22.8226  EKtot   =        15.0746  EPtot      =         7.7480
 BOND   =         1.8103  ANGLE   =         2.4137  DIHED      =         0.7557
 1-4 NB =         0.0362  1-4 EEL =         5.8575  VDWAALS    =        -0.0498
 EELEC  =        -3.0757  EHBOND  =         0.0000  RESTRAINT  =         0.0000
 EKCMT  =         0.8856  VIRIAL  =        -1.9009  VOLUME     =    232086.7498
                                                    Density    =         0.0004
 DV/DL  =       -13.4820
 ------------------------------------------------------------------------------

      A V E R A G E S   O V E R    1000 S T E P S

 NSTEP =     1000   TIME(PS) =     202.000  TEMP(K) =   308.12  PRESS =     1.8
 Etot   =        19.7348  EKtot   =         8.5722  EPtot      =        11.1626
 BOND   =         0.8088  ANGLE   =         5.1425  DIHED      =         1.5788
 1-4 NB =         0.8605  1-4 EEL =         8.2639  VDWAALS    =        -0.0778
 EELEC  =        -5.4141  EHBOND  =         0.0000  RESTRAINT  =         0.0000
 EKCMT  =         1.5940  VIRIAL  =        -7.2539  VOLUME     =    232085.1651
                                                    Density    =         0.0004
 DV/DL  =       -13.8109
 ------------------------------------------------------------------------------

      R M S  F L U C T U A T I O N S

 NSTEP =     1000   TIME(PS) =     202.000  TEMP(K) =    74.11  PRESS =     0.5
 Etot   =         2.8556  EKtot   =         2.0617  EPtot      =         2.3550
 BOND   =         0.6072  ANGLE   =         1.5160  DIHED      =         1.3078
 1-4 NB =         0.8418  1-4 EEL =         0.9966  VDWAALS    =         0.0189
 EELEC  =         0.9371  EHBOND  =         0.0000  RESTRAINT  =         0.0000
 EKCMT  =         1.0281  VIRIAL  =         2.7763  VOLUME     =         0.9098
                                                    Density    =         0.0000
 DV/DL  =         0.8517
 ------------------------------------------------------------------------------

      A V E R A G E S   O V E R    1000 S T E P S

 NSTEP =     1000   TIME(PS) =     202.000  TEMP(K) =   308.12  PRESS =     1.8
 Etot   =        19.7348  EKtot   =         8.5722  EPtot      =        11.1626
 BOND   =         0.8088  ANGLE   =         5.1425  DIHED      =         1.5788
 1-4 NB =         0.8605  1-4 EEL =         8.2639  VDWAALS    =        -0.0778
 EELEC  =        -5.4141  EHBOND  =         0.0000  RESTRAINT  =         0.0000
 EKCMT  =         1.5940  VIRIAL  =        -7.2539  VOLUME     =    232085.1651
                                                    Density    =         0.0004
 DV/DL  =       -13.8109
 ------------------------------------------------------------------------------

      R M S  F L U C T U A T I O N S

 NSTEP =     1000   TIME(PS) =     202.000  TEMP(K) =    74.11  PRESS =     0.5
 Etot   =         2.8556  EKtot   =         2.0617  EPtot      =         2.3550
 BOND   =         0.6072  ANGLE   =         1.5160  DIHED      =         1.3078
 1-4 NB =         0.8418  1-4 EEL =         0.9966  VDWAALS    =         0.0189
 EELEC  =         0.9371  EHBOND  =         0.0000  RESTRAINT  =         0.0000
 EKCMT  =         1.0281  VIRIAL  =         2.7763  VOLUME     =         0.9098
                                                    Density    =         0.0000
 DV/DL  =         0.8517
 ------------------------------------------------------------------------------

      DV/DL, AVERAGES OVER    1000 STEPS

 NSTEP =     1000   TIME(PS) =     202.000  TEMP(K) =    74.11  PRESS =     0.0
 Etot   =         0.0000  EKtot   =         0.0000  EPtot      =       -13.8109
 BOND   =         0.0000  ANGLE   =         0.0000  DIHED      =         0.0000
 1-4 NB =         0.0000  1-4 EEL =       -40.0499  VDWAALS    =         0.0000
 EELEC  =        26.2389  EHBOND  =         0.0000  RESTRAINT  =         0.0000
 EKCMT  =         0.0000  VIRIAL  =         0.0000  VOLUME     =         0.0000
                                                    Density    =         0.0000
 DV/DL  =       -13.8109
 ------------------------------------------------------------------------------

      A V E R A G E S   O V E R    1000 S T E P S

 NSTEP =     2000   TIME(PS) =     204.000  TEMP(K) =   309.29  PRESS =     1.9
 Etot   =        19.2303  EKtot   =         8.6047  EPtot      =        10.6256
 BOND   =         0.8752  ANGLE   =         4.6401  DIHED      =         1.6452
 1-4 NB =         0.8295  1-4 EEL =         7.7184  VDWAALS    =        -0.0989
 EELEC  =        -4.9839  EHBOND  =         0.0000  RESTRAINT  =         0.0000
 EKCMT  =         1.6212  VIRIAL  =        -7.9498  VOLUME     =    232088.5300
                                                    Density    =         0.0004
 DV/DL  =       -13.2523
 ------------------------------------------------------------------------------

      R M S  F L U C T U A T I O N S

 NSTEP =     2000   TIME(PS) =     204.000  TEMP(K) =    64.48  PRESS =     0.8
 Etot   =         2.1759  EKtot   =         1.7938  EPtot      =         1.9443
 BOND   =         0.6315  ANGLE   =         1.4225  DIHED      =         0.9269
 1-4 NB =         0.8206  1-4 EEL =         1.2736  VDWAALS    =         0.0403
 EELEC  =         1.2989  EHBOND  =         0.0000  RESTRAINT  =         0.0000
 EKCMT  =         0.8695  VIRIAL  =         3.5978  VOLUME     =         1.1750
                                                    Density    =         0.0000
 DV/DL  =         0.4576
 ------------------------------------------------------------------------------

      A V E R A G E S   O V E R    1000 S T E P S

 NSTEP =     2000   TIME(PS) =     204.000  TEMP(K) =   309.29  PRESS =     1.9
 Etot   =        19.2303  EKtot   =         8.6047  EPtot      =        10.6256
 BOND   =         0.8752  ANGLE   =         4.6401  DIHED      =         1.6452
 1-4 NB =         0.8295  1-4 EEL =         7.7184  VDWAALS    =        -0.0989
 EELEC  =        -4.9839  EHBOND  =         0.0000  RESTRAINT  =         0.0000
 EKCMT  =         1.6212  VIRIAL  =        -7.9498  VOLUME     =    232088.5300
                                                    Density    =         0.0004
 DV/DL  =       -13.2523
 ------------------------------------------------------------------------------

      R M S  F L U C T U A T I O N S

 NSTEP =     2000   TIME(PS) =     204.000  TEMP(K) =    64.48  PRESS =     0.8
 Etot   =         2.1759  EKtot   =         1.7938  EPtot      =         1.9443
 BOND   =         0.6315  ANGLE   =         1.4225  DIHED      =         0.9269
 1-4 NB =         0.8206  1-4 EEL =         1.2736  VDWAALS    =         0.0403
 EELEC  =         1.2989  EHBOND  =         0.0000  RESTRAINT  =         0.0000
 EKCMT  =         0.8695  VIRIAL  =         3.5978  VOLUME     =         1.1750
                                                    Density    =         0.0000
 DV/DL  =         0.4576
 ------------------------------------------------------------------------------

      DV/DL, AVERAGES OVER    1000 STEPS

 NSTEP =     2000   TIME(PS) =     204.000  TEMP(K) =    64.48  PRESS =     0.0
 Etot   =         0.0000  EKtot   =         0.0000  EPtot      =       -13.2523
 BOND   =         0.0000  ANGLE   =         0.0000  DIHED      =         0.0000
 1-4 NB =         0.0000  1-4 EEL =       -37.4060  VDWAALS    =         0.0000
 EELEC  =        24.1537  EHBOND  =         0.0000  RESTRAINT  =         0.0000
 EKCMT  =         0.0000  VIRIAL  =         0.0000  VOLUME     =         0.0000
                                                    Density    =         0.0000
 DV/DL  =       -13.2523
 ------------------------------------------------------------------------------

      A V E R A G E S   O V E R    1000 S T E P S

 NSTEP =   500000   TIME(PS) =    1200.000  TEMP(K) =   264.68  PRESS =     2.0
 Etot   =        16.9570  EKtot   =         7.3636  EPtot      =         9.5934
 BOND   =         0.7844  ANGLE   =         4.1218  DIHED      =         1.2947
 1-4 NB =         0.8962  1-4 EEL =         8.4089  VDWAALS    =        -0.1018
 EELEC  =        -5.8109  EHBOND  =         0.0000  RESTRAINT  =         0.0000
 EKCMT  =         1.4405  VIRIAL  =        -8.4534  VOLUME     =    233834.0328
                                                    Density    =         0.0004
 DV/DL  =       -12.5911
 ------------------------------------------------------------------------------

      R M S  F L U C T U A T I O N S

 NSTEP =   500000   TIME(PS) =    1200.000  TEMP(K) =    51.17  PRESS =     0.7
 Etot   =         2.0479  EKtot   =         1.4236  EPtot      =         1.9068
 BOND   =         0.6627  ANGLE   =         1.2628  DIHED      =         0.7589
 1-4 NB =         0.8478  1-4 EEL =         0.7751  VDWAALS    =         0.0252
 EELEC  =         0.8594  EHBOND  =         0.0000  RESTRAINT  =         0.0000
 EKCMT  =         1.0421  VIRIAL  =         3.2429  VOLUME     =         1.0520
                                                    Density    =         0.0000
 DV/DL  =         0.5915
 ------------------------------------------------------------------------------

      A V E R A G E S   O V E R    1000 S T E P S

 NSTEP =   500000   TIME(PS) =    1200.000  TEMP(K) =   264.68  PRESS =     2.0
 Etot   =        16.9570  EKtot   =         7.3636  EPtot      =         9.5934
 BOND   =         0.7844  ANGLE   =         4.1218  DIHED      =         1.2947
 1-4 NB =         0.8962  1-4 EEL =         8.4089  VDWAALS    =        -0.1018
 EELEC  =        -5.8109  EHBOND  =         0.0000  RESTRAINT  =         0.0000
 EKCMT  =         1.4405  VIRIAL  =        -8.4534  VOLUME     =    233834.0328
                                                    Density    =         0.0004
 DV/DL  =       -12.5911
 ------------------------------------------------------------------------------

      R M S  F L U C T U A T I O N S

 NSTEP =   500000   TIME(PS) =    1200.000  TEMP(K) =    51.17  PRESS =     0.7
 Etot   =         2.0479  EKtot   =         1.4236  EPtot      =         1.9068
 BOND   =         0.6627  ANGLE   =         1.2628  DIHED      =         0.7589
 1-4 NB =         0.8478  1-4 EEL =         0.7751  VDWAALS    =         0.0252
 EELEC  =         0.8594  EHBOND  =         0.0000  RESTRAINT  =         0.0000
 EKCMT  =         1.0421  VIRIAL  =         3.2429  VOLUME     =         1.0520
                                                    Density    =         0.0000
 DV/DL  =         0.5915
 ------------------------------------------------------------------------------

      DV/DL, AVERAGES OVER    1000 STEPS

 NSTEP =   500000   TIME(PS) =    1200.000  TEMP(K) =    51.17  PRESS =     0.0
 Etot   =         0.0000  EKtot   =         0.0000  EPtot      =       -12.5911
 BOND   =         0.0000  ANGLE   =         0.0000  DIHED      =         0.0000
 1-4 NB =         0.0000  1-4 EEL =       -40.7528  VDWAALS    =         0.0000
 EELEC  =        28.1617  EHBOND  =         0.0000  RESTRAINT  =         0.0000
 EKCMT  =         0.0000  VIRIAL  =         0.0000  VOLUME     =         0.0000
                                                    Density    =         0.0000
 DV/DL  =       -12.5911
 ------------------------------------------------------------------------------

      A V E R A G E S   O V E R  500000 S T E P S

 NSTEP =   500000   TIME(PS) =    1200.000  TEMP(K) =   296.16  PRESS =     1.9
 Etot   =        18.3506  EKtot   =         8.2393  EPtot      =        10.1113
 BOND   =         0.9101  ANGLE   =         4.8143  DIHED      =         1.1736
 1-4 NB =         0.5564  1-4 EEL =         7.5225  VDWAALS    =        -0.0839
 EELEC  =        -4.7818  EHBOND  =         0.0000  RESTRAINT  =         0.0000
 EKCMT  =         1.7971  VIRIAL  =        -7.5405  VOLUME     =    232906.9050
                                                    Density    =         0.0004
 DV/DL  =       -13.2823
 ------------------------------------------------------------------------------

      R M S  F L U C T U A T I O N S

 NSTEP =   500000   TIME(PS) =    1200.000  TEMP(K) =    79.78  PRESS =     0.7
 Etot   =         3.1678  EKtot   =         2.2196  EPtot      =         2.2364
 BOND   =         0.7436  ANGLE   =         1.7141  DIHED      =         0.8379
 1-4 NB =         0.6390  1-4 EEL =         1.3453  VDWAALS    =         0.0405
 EELEC  =         1.3607  EHBOND  =         0.0000  RESTRAINT  =         0.0000
 EKCMT  =         1.4887  VIRIAL  =         2.9789  VOLUME     =       502.1635
                                                    Density    =         0.0000
 DV/DL  =         0.8914
 ------------------------------------------------------------------------------

      A V E R A G E S   O V E R  500000 S T E P S

 NSTEP =   500000   TIME(PS) =    1200.000  TEMP(K) =   296.16  PRESS =     1.9
 Etot   =        18.3506  EKtot   =         8.2393  EPtot      =        10.1113
 BOND   =         0.9101  ANGLE   =         4.8143  DIHED      =         1.1736
 1-4 NB =         0.5564  1-4 EEL =         7.5225  VDWAALS    =        -0.0839
 EELEC  =        -4.7818  EHBOND  =         0.0000  RESTRAINT  =         0.0000
 EKCMT  =         1.7971  VIRIAL  =        -7.5405  VOLUME     =    232906.9050
                                                    Density    =         0.0004
 DV/DL  =       -13.2823
 ------------------------------------------------------------------------------

      R M S  F L U C T U A T I O N S

 NSTEP =   500000   TIME(PS) =    1200.000  TEMP(K) =    79.78  PRESS =     0.7
 Etot   =         3.1678  EKtot   =         2.2196  EPtot      =         2.2364
 BOND   =         0.7436  ANGLE   =         1.7141  DIHED      =         0.8379
 1-4 NB =         0.6390  1-4 EEL =         1.3453  VDWAALS    =         0.0405
 EELEC  =         1.3607  EHBOND  =         0.0000  RESTRAINT  =         0.0000
 EKCMT  =         1.4887  VIRIAL  =         2.9789  VOLUME     =       502.1635
                                                    Density    =         0.0000
 DV/DL  =         0.8914
 ------------------------------------------------------------------------------

      DV/DL, AVERAGES OVER  500000 STEPS

 NSTEP =   500000   TIME(PS) =    1200.000  TEMP(K) =    79.78  PRESS =     0.0
 Etot   =         0.0000  EKtot   =         0.0000  EPtot      =       -13.2823
 BOND   =         0.0000  ANGLE   =         0.0000  DIHED      =         0.0000
 1-4 NB =         0.0000  1-4 EEL =       -36.4568  VDWAALS    =         0.0000
 EELEC  =        23.1745  EHBOND  =         0.0000  RESTRAINT  =         0.0000
 EKCMT  =         0.0000  VIRIAL  =         0.0000  VOLUME     =         0.0000
                                                    Density    =         0.0000
 DV/DL  =       -13.2823
 ------------------------------------------------------------------------------
