-------------------------------------------------------
          Amber 18 PMEMD                              2018
          -------------------------------------------------------

  [-O]verwriting output

File Assignments:

 Here is the input file:

 &cntrl
   nstlim=500000, nscm=1000,
   ntx=5, irest=1, ntpr=1000,
   tempi=300.0, temp0=300.0, ntt=3, gamma_ln=2.0,
   ntp=1, pres0=1.01325, taup=5.0,
   ntb=2, igb=0, cut=10.0,
   dt=0.002, ig=-1,
   ntc=2, ntf=2,
   iwrap=0,
   ntwr=1000, ntwx=50000, ntave=1000,
   ioutfm=1, ntwv=-1,
   ifsc = 0, icfe=1,
   clambda=0.20634,
   timask1=':1',
   timask2=':2', crgmask = ':2',
/

Note: ig = -1. Setting random seed to   731503 based on wallclock time in
      microseconds.

--------------------------------------------------------------------------------
   1.  RESOURCE   USE:
--------------------------------------------------------------------------------

 getting box info from netcdf restart file
 NATOM  =   20967 NTYPES =       6 NBONH =   20959 MBONA  =       6
 NTHETH =      32 MTHETA =       4 NPHIH =      40 MPHIA  =       2
 NHPARM =       0 NPARM  =       0 NNB   =   28026 NRES   =    6983
 NBONA  =       6 NTHETA =       4 NPHIA =       2 NUMBND =       6
 NUMANG =       6 NPTRA  =       2 NATYP =       6 NPHB   =       1
 IFBOX  =       2 NMXRS  =      12 IFCAP =       0 NEXTRA =       0
 NCOPY  =       0

     BOX TYPE: TRUNCATED OCTAHEDRON

--------------------------------------------------------------------------------
   2.  CONTROL  DATA  FOR  THE  RUN
--------------------------------------------------------------------------------

default_name

General flags:
     imin    =       0, nmropt  =       0

Nature and format of input:
     ntx     =       5, irest   =       1, ntrx    =       1

Nature and format of output:
     ntxo    =       2, ntpr    =    1000, ntrx    =       1, ntwr    =    1000
     iwrap   =       0, ntwx    =   50000, ntwv    =      -1, ntwe    =       0
     ioutfm  =       1, ntwprt  =       0, idecomp =       0, rbornstat=      0

Potential function:
     ntf     =       2, ntb     =       2, igb     =       0, nsnb    =      25
     ipol    =       0, gbsa    =       0, iesp    =       0
     dielc   =   1.00000, cut     =  10.00000, intdiel =   1.00000

Frozen or restrained atoms:
     ibelly  =       0, ntr     =       0

Molecular dynamics:
     nstlim  =    500000, nscm    =      1000, nrespa  =         1
     t       =   0.00000, dt      =   0.00200, vlimit  =  -1.00000

Langevin dynamics temperature regulation:
     ig      =  731503
     temp0   = 300.00000, tempi   = 300.00000, gamma_ln=   2.00000

Pressure regulation:
     ntp     =       1
     pres0   =   1.01325, comp    =  44.60000, taup    =   5.00000

SHAKE:
     ntc     =       2, jfastw  =       0
     tol     =   0.00001

Free energy options:
     icfe    =       1, ifsc    =       0, klambda =       1
     clambda =  0.2063, scalpha =  0.5000, scbeta  = 12.0000
     sceeorder =       2
     dynlmb =  0.0000 logdvdl =       0

Ewald parameters:
     verbose =       0, ew_type =       0, nbflag  =       1, use_pme =       1
     vdwmeth =       1, eedmeth =       1, netfrc  =       1
     Box X =   67.054   Box Y =   67.054   Box Z =   67.054
     Alpha =  109.471   Beta  =  109.471   Gamma =  109.471
     NFFT1 =   64       NFFT2 =   64       NFFT3 =   64
     Cutoff=   10.000   Tol   =0.100E-04
     Ewald Coefficient =  0.27511
     Interpolation order =    4
     TI Mask 1 :1; matches     12 atoms
     TI Mask 2 :2; matches     12 atoms
     TI region 1:   20955 atoms
     TI region 2:   20955 atoms
Removing charge of      -0.6664 from atom      13
Removing charge of      -0.6664 from atom      14
Removing charge of      -0.0664 from atom      15
Removing charge of      -0.0664 from atom      16
Removing charge of       0.2792 from atom      17
Removing charge of       0.2802 from atom      18
Removing charge of       0.2802 from atom      19
Removing charge of       0.2792 from atom      20
Removing charge of       0.0898 from atom      21
Removing charge of       0.0837 from atom      22
Removing charge of       0.0898 from atom      23
Removing charge of       0.0837 from atom      24
Total charge of  -0.00000000 removed from      12 atoms
     Checking for mismatched coordinates.

--------------------------------------------------------------------------------
   3.  ATOMIC COORDINATES AND VELOCITIES
--------------------------------------------------------------------------------

default_name
 begin time read from input coords =   200.000 ps

 Number of triangulated 3-point waters found:     6981

     Sum of charges for TI region  1 =  -0.00000000
     Forcing neutrality...

     Sum of charges for TI region  2 =   0.00000000
     Forcing neutrality...

--------------------------------------------------------------------------------
   4.  RESULTS
 NSTEP =     1000   TIME(PS) =     202.000  TEMP(K) =   301.66  PRESS =  -505.6
 Etot   =    -53118.4742  EKtot   =     12562.9579  EPtot      =    -65681.4321
 BOND   =         1.4860  ANGLE   =         4.2466  DIHED      =         1.7418
 1-4 NB =         0.0815  1-4 EEL =        28.9896  VDWAALS    =      9763.4071
 EELEC  =    -75481.3847  EHBOND  =         0.0000  RESTRAINT  =         0.0000
 EKCMT  =      6319.1630  VIRIAL  =      8825.8020  VOLUME     =    229621.9894
                                                    Density    =         0.9100
 DV/DL  =         1.1636
 ------------------------------------------------------------------------------

      A V E R A G E S   O V E R    1000 S T E P S

 NSTEP =     1000   TIME(PS) =     202.000  TEMP(K) =   301.48  PRESS =  -597.2
 Etot   =    -53028.9205  EKtot   =     12555.3474  EPtot      =    -65584.2679
 BOND   =         0.9034  ANGLE   =         4.8598  DIHED      =         0.9590
 1-4 NB =         0.4418  1-4 EEL =        30.7811  VDWAALS    =      9685.2133
 EELEC  =    -75307.4262  EHBOND  =         0.0000  RESTRAINT  =         0.0000
 EKCMT  =      6303.6019  VIRIAL  =      9280.3207  VOLUME     =    230858.8268
                                                    Density    =         0.9051
 DV/DL  =        -0.6193
 ------------------------------------------------------------------------------

      R M S  F L U C T U A T I O N S

 NSTEP =     1000   TIME(PS) =     202.000  TEMP(K) =     2.05  PRESS =   158.2
 Etot   =       104.7601  EKtot   =        85.2118  EPtot      =       114.8973
 BOND   =         0.7101  ANGLE   =         1.5199  DIHED      =         0.6761
 1-4 NB =         0.3201  1-4 EEL =         1.5271  VDWAALS    =       162.7605
 EELEC  =       212.9286  EHBOND  =         0.0000  RESTRAINT  =         0.0000
 EKCMT  =        55.1757  VIRIAL  =       770.7827  VOLUME     =       699.6178
                                                    Density    =         0.0027
 DV/DL  =         2.9047
 ------------------------------------------------------------------------------

      A V E R A G E S   O V E R    1000 S T E P S

 NSTEP =     1000   TIME(PS) =     202.000  TEMP(K) =   301.48  PRESS =  -597.2
 Etot   =    -53028.9205  EKtot   =     12555.3474  EPtot      =    -65584.2679
 BOND   =         0.9034  ANGLE   =         4.8598  DIHED      =         0.9590
 1-4 NB =         0.4418  1-4 EEL =        30.7811  VDWAALS    =      9685.2133
 EELEC  =    -75307.4262  EHBOND  =         0.0000  RESTRAINT  =         0.0000
 EKCMT  =      6303.6019  VIRIAL  =      9280.3207  VOLUME     =    230858.8268
                                                    Density    =         0.9051
 DV/DL  =        -0.6193
 ------------------------------------------------------------------------------

      R M S  F L U C T U A T I O N S

 NSTEP =     1000   TIME(PS) =     202.000  TEMP(K) =     2.05  PRESS =   158.2
 Etot   =       104.7601  EKtot   =        85.2118  EPtot      =       114.8973
 BOND   =         0.7101  ANGLE   =         1.5199  DIHED      =         0.6761
 1-4 NB =         0.3201  1-4 EEL =         1.5271  VDWAALS    =       162.7605
 EELEC  =       212.9286  EHBOND  =         0.0000  RESTRAINT  =         0.0000
 EKCMT  =        55.1757  VIRIAL  =       770.7827  VOLUME     =       699.6178
                                                    Density    =         0.0027
 DV/DL  =         2.9047
 ------------------------------------------------------------------------------

      DV/DL, AVERAGES OVER    1000 STEPS

 NSTEP =     1000   TIME(PS) =     202.000  TEMP(K) =     2.05  PRESS =     0.0
 Etot   =         0.0000  EKtot   =         0.0000  EPtot      =        -0.6193
 BOND   =         0.0000  ANGLE   =         0.0000  DIHED      =         0.0000
 1-4 NB =         0.0000  1-4 EEL =       -38.7838  VDWAALS    =         0.0000
 EELEC  =        38.1645  EHBOND  =         0.0000  RESTRAINT  =         0.0000
 EKCMT  =         0.0000  VIRIAL  =         0.0000  VOLUME     =         0.0000
                                                    Density    =         0.0000
 DV/DL  =        -0.6193
 ------------------------------------------------------------------------------

      A V E R A G E S   O V E R    1000 S T E P S

 NSTEP =     2000   TIME(PS) =     204.000  TEMP(K) =   299.72  PRESS =  -575.8
 Etot   =    -53274.9497  EKtot   =     12482.0147  EPtot      =    -65756.9644
 BOND   =         0.7303  ANGLE   =         4.5866  DIHED      =         0.8409
 1-4 NB =         0.4169  1-4 EEL =        30.5167  VDWAALS    =      9671.5164
 EELEC  =    -75465.5722  EHBOND  =         0.0000  RESTRAINT  =         0.0000
 EKCMT  =      6250.3204  VIRIAL  =      9090.6189  VOLUME     =    228395.5029
                                                    Density    =         0.9149
 DV/DL  =        -2.2800
 ------------------------------------------------------------------------------

      R M S  F L U C T U A T I O N S

 NSTEP =     2000   TIME(PS) =     204.000  TEMP(K) =     1.77  PRESS =   106.2
 Etot   =       105.1747  EKtot   =        73.7443  EPtot      =       100.5588
 BOND   =         0.5863  ANGLE   =         1.2527  DIHED      =         0.4677
 1-4 NB =         0.3740  1-4 EEL =         1.4354  VDWAALS    =       103.2748
 EELEC  =       164.0716  EHBOND  =         0.0000  RESTRAINT  =         0.0000
 EKCMT  =        55.7114  VIRIAL  =       535.0603  VOLUME     =       686.5009
                                                    Density    =         0.0027
 DV/DL  =         2.8488
 ------------------------------------------------------------------------------

      A V E R A G E S   O V E R    1000 S T E P S

 NSTEP =     2000   TIME(PS) =     204.000  TEMP(K) =   299.72  PRESS =  -575.8
 Etot   =    -53274.9497  EKtot   =     12482.0147  EPtot      =    -65756.9644
 BOND   =         0.7303  ANGLE   =         4.5866  DIHED      =         0.8409
 1-4 NB =         0.4169  1-4 EEL =        30.5167  VDWAALS    =      9671.5164
 EELEC  =    -75465.5722  EHBOND  =         0.0000  RESTRAINT  =         0.0000
 EKCMT  =      6250.3204  VIRIAL  =      9090.6189  VOLUME     =    228395.5029
                                                    Density    =         0.9149
 DV/DL  =        -2.2800
 ------------------------------------------------------------------------------

      R M S  F L U C T U A T I O N S

 NSTEP =     2000   TIME(PS) =     204.000  TEMP(K) =     1.77  PRESS =   106.2
 Etot   =       105.1747  EKtot   =        73.7443  EPtot      =       100.5588
 BOND   =         0.5863  ANGLE   =         1.2527  DIHED      =         0.4677
 1-4 NB =         0.3740  1-4 EEL =         1.4354  VDWAALS    =       103.2748
 EELEC  =       164.0716  EHBOND  =         0.0000  RESTRAINT  =         0.0000
 EKCMT  =        55.7114  VIRIAL  =       535.0603  VOLUME     =       686.5009
                                                    Density    =         0.0027
 DV/DL  =         2.8488
 ------------------------------------------------------------------------------

      DV/DL, AVERAGES OVER    1000 STEPS

 NSTEP =     2000   TIME(PS) =     204.000  TEMP(K) =     1.77  PRESS =     0.0
 Etot   =         0.0000  EKtot   =         0.0000  EPtot      =        -2.2800
 BOND   =         0.0000  ANGLE   =         0.0000  DIHED      =         0.0000
 1-4 NB =         0.0000  1-4 EEL =       -38.4505  VDWAALS    =         0.0000
 EELEC  =        36.1706  EHBOND  =         0.0000  RESTRAINT  =         0.0000
 EKCMT  =         0.0000  VIRIAL  =         0.0000  VOLUME     =         0.0000
                                                    Density    =         0.0000
 DV/DL  =        -2.2800
 ------------------------------------------------------------------------------

      A V E R A G E S   O V E R    1000 S T E P S

 NSTEP =   500000   TIME(PS) =    1200.000  TEMP(K) =   299.25  PRESS =   -15.8
 Etot   =    -54151.9979  EKtot   =     12462.3560  EPtot      =    -66614.3539
 BOND   =         0.6796  ANGLE   =         3.3742  DIHED      =         1.5001
 1-4 NB =         0.3230  1-4 EEL =        26.9353  VDWAALS    =      9958.0584
 EELEC  =    -76605.2245  EHBOND  =         0.0000  RESTRAINT  =         0.0000
 EKCMT  =      6251.2818  VIRIAL  =      6323.7276  VOLUME     =    212663.5148
                                                    Density    =         0.9825
 DV/DL  =        -4.2160
 ------------------------------------------------------------------------------

      R M S  F L U C T U A T I O N S

 NSTEP =   500000   TIME(PS) =    1200.000  TEMP(K) =     1.83  PRESS =   115.9
 Etot   =        99.5524  EKtot   =        76.0693  EPtot      =        93.1652
 BOND   =         0.6117  ANGLE   =         1.1640  DIHED      =         0.9761
 1-4 NB =         0.3009  1-4 EEL =         4.5248  VDWAALS    =       106.8675
 EELEC  =       152.6099  EHBOND  =         0.0000  RESTRAINT  =         0.0000
 EKCMT  =        52.7799  VIRIAL  =       528.3966  VOLUME     =        31.9598
                                                    Density    =         0.0001
 DV/DL  =         2.6876
 ------------------------------------------------------------------------------

      A V E R A G E S   O V E R    1000 S T E P S

 NSTEP =   500000   TIME(PS) =    1200.000  TEMP(K) =   299.25  PRESS =   -15.8
 Etot   =    -54151.9979  EKtot   =     12462.3560  EPtot      =    -66614.3539
 BOND   =         0.6796  ANGLE   =         3.3742  DIHED      =         1.5001
 1-4 NB =         0.3230  1-4 EEL =        26.9353  VDWAALS    =      9958.0584
 EELEC  =    -76605.2245  EHBOND  =         0.0000  RESTRAINT  =         0.0000
 EKCMT  =      6251.2818  VIRIAL  =      6323.7276  VOLUME     =    212663.5148
                                                    Density    =         0.9825
 DV/DL  =        -4.2160
 ------------------------------------------------------------------------------

      R M S  F L U C T U A T I O N S

 NSTEP =   500000   TIME(PS) =    1200.000  TEMP(K) =     1.83  PRESS =   115.9
 Etot   =        99.5524  EKtot   =        76.0693  EPtot      =        93.1652
 BOND   =         0.6117  ANGLE   =         1.1640  DIHED      =         0.9761
 1-4 NB =         0.3009  1-4 EEL =         4.5248  VDWAALS    =       106.8675
 EELEC  =       152.6099  EHBOND  =         0.0000  RESTRAINT  =         0.0000
 EKCMT  =        52.7799  VIRIAL  =       528.3966  VOLUME     =        31.9598
                                                    Density    =         0.0001
 DV/DL  =         2.6876
 ------------------------------------------------------------------------------

      DV/DL, AVERAGES OVER    1000 STEPS

 NSTEP =   500000   TIME(PS) =    1200.000  TEMP(K) =     1.83  PRESS =     0.0
 Etot   =         0.0000  EKtot   =         0.0000  EPtot      =        -4.2160
 BOND   =         0.0000  ANGLE   =         0.0000  DIHED      =         0.0000
 1-4 NB =         0.0000  1-4 EEL =       -33.9381  VDWAALS    =         0.0000
 EELEC  =        29.7222  EHBOND  =         0.0000  RESTRAINT  =         0.0000
 EKCMT  =         0.0000  VIRIAL  =         0.0000  VOLUME     =         0.0000
                                                    Density    =         0.0000
 DV/DL  =        -4.2160
 ------------------------------------------------------------------------------

      A V E R A G E S   O V E R  500000 S T E P S

 NSTEP =   500000   TIME(PS) =    1200.000  TEMP(K) =   300.03  PRESS =    -8.8
 Etot   =    -54078.3041  EKtot   =     12494.8631  EPtot      =    -66573.1672
 BOND   =         0.9483  ANGLE   =         4.8616  DIHED      =         1.1023
 1-4 NB =         0.4369  1-4 EEL =        29.0371  VDWAALS    =      9957.6620
 EELEC  =    -76567.2153  EHBOND  =         0.0000  RESTRAINT  =         0.0000
 EKCMT  =      6265.5244  VIRIAL  =      6308.0211  VOLUME     =    212846.4062
                                                    Density    =         0.9817
 DV/DL  =        -3.2000
 ------------------------------------------------------------------------------

      R M S  F L U C T U A T I O N S

 NSTEP =   500000   TIME(PS) =    1200.000  TEMP(K) =     2.06  PRESS =   141.2
 Etot   =       166.4228  EKtot   =        85.8647  EPtot      =       142.9957
 BOND   =         0.7721  ANGLE   =         1.7148  DIHED      =         0.7711
 1-4 NB =         0.4103  1-4 EEL =         4.6576  VDWAALS    =       126.7073
 EELEC  =       219.3018  EHBOND  =         0.0000  RESTRAINT  =         0.0000
 EKCMT  =        60.7828  VIRIAL  =       653.4590  VOLUME     =      1608.0490
                                                    Density    =         0.0070
 DV/DL  =         3.6398
 ------------------------------------------------------------------------------

      A V E R A G E S   O V E R  500000 S T E P S

 NSTEP =   500000   TIME(PS) =    1200.000  TEMP(K) =   300.03  PRESS =    -8.8
 Etot   =    -54078.3041  EKtot   =     12494.8631  EPtot      =    -66573.1672
 BOND   =         0.9483  ANGLE   =         4.8616  DIHED      =         1.1023
 1-4 NB =         0.4369  1-4 EEL =        29.0371  VDWAALS    =      9957.6620
 EELEC  =    -76567.2153  EHBOND  =         0.0000  RESTRAINT  =         0.0000
 EKCMT  =      6265.5244  VIRIAL  =      6308.0211  VOLUME     =    212846.4062
                                                    Density    =         0.9817
 DV/DL  =        -3.2000
 ------------------------------------------------------------------------------

      R M S  F L U C T U A T I O N S

 NSTEP =   500000   TIME(PS) =    1200.000  TEMP(K) =     2.06  PRESS =   141.2
 Etot   =       166.4228  EKtot   =        85.8647  EPtot      =       142.9957
 BOND   =         0.7721  ANGLE   =         1.7148  DIHED      =         0.7711
 1-4 NB =         0.4103  1-4 EEL =         4.6576  VDWAALS    =       126.7073
 EELEC  =       219.3018  EHBOND  =         0.0000  RESTRAINT  =         0.0000
 EKCMT  =        60.7828  VIRIAL  =       653.4590  VOLUME     =      1608.0490
                                                    Density    =         0.0070
 DV/DL  =         3.6398
 ------------------------------------------------------------------------------

      DV/DL, AVERAGES OVER  500000 STEPS

 NSTEP =   500000   TIME(PS) =    1200.000  TEMP(K) =     2.06  PRESS =     0.0
 Etot   =         0.0000  EKtot   =         0.0000  EPtot      =        -3.2000
 BOND   =         0.0000  ANGLE   =         0.0000  DIHED      =         0.0000
 1-4 NB =         0.0000  1-4 EEL =       -36.5863  VDWAALS    =         0.0000
 EELEC  =        33.3863  EHBOND  =         0.0000  RESTRAINT  =         0.0000
 EKCMT  =         0.0000  VIRIAL  =         0.0000  VOLUME     =         0.0000
                                                    Density    =         0.0000
 DV/DL  =        -3.2000
 ------------------------------------------------------------------------------
