-------------------------------------------------------
          Amber 18 PMEMD                              2018
          -------------------------------------------------------

  [-O]verwriting output

File Assignments:

 Here is the input file:

 &cntrl
   nstlim=500000, nscm=1000,
   ntx=5, irest=1, ntpr=1000,
   tempi=300.0, temp0=300.0, ntt=3, gamma_ln=2.0,
   ntp=1, pres0=1.01325, taup=5.0,
   ntb=2, igb=0, cut=10.0,
   dt=0.002, ig=-1,
   ntc=2, ntf=2,
   iwrap=0,
   ntwr=1000, ntwx=50000, ntave=1000,
   ioutfm=1, ntwv=-1,
   ifsc = 0, icfe=1,
   clambda=0.04794,
   timask1=':1',
   timask2=':2', crgmask = ':2',
/

Note: ig = -1. Setting random seed to   561068 based on wallclock time in
      microseconds.

--------------------------------------------------------------------------------
   1.  RESOURCE   USE:
--------------------------------------------------------------------------------

 getting box info from netcdf restart file
 NATOM  =      24 NTYPES =       6 NBONH =      16 MBONA  =       6
 NTHETH =      32 MTHETA =       4 NPHIH =      40 MPHIA  =       2
 NHPARM =       0 NPARM  =       0 NNB   =     102 NRES   =       2
 NBONA  =       6 NTHETA =       4 NPHIA =       2 NUMBND =       4
 NUMANG =       6 NPTRA  =       2 NATYP =       6 NPHB   =       1
 IFBOX  =       2 NMXRS  =      12 IFCAP =       0 NEXTRA =       0
 NCOPY  =       0

     BOX TYPE: TRUNCATED OCTAHEDRON

--------------------------------------------------------------------------------
   2.  CONTROL  DATA  FOR  THE  RUN
--------------------------------------------------------------------------------

default_name

General flags:
     imin    =       0, nmropt  =       0

Nature and format of input:
     ntx     =       5, irest   =       1, ntrx    =       1

Nature and format of output:
     ntxo    =       2, ntpr    =    1000, ntrx    =       1, ntwr    =    1000
     iwrap   =       0, ntwx    =   50000, ntwv    =      -1, ntwe    =       0
     ioutfm  =       1, ntwprt  =       0, idecomp =       0, rbornstat=      0

Potential function:
     ntf     =       2, ntb     =       2, igb     =       0, nsnb    =      25
     ipol    =       0, gbsa    =       0, iesp    =       0
     dielc   =   1.00000, cut     =  10.00000, intdiel =   1.00000

Frozen or restrained atoms:
     ibelly  =       0, ntr     =       0

Molecular dynamics:
     nstlim  =    500000, nscm    =      1000, nrespa  =         1
     t       =   0.00000, dt      =   0.00200, vlimit  =  -1.00000

Langevin dynamics temperature regulation:
     ig      =  561068
     temp0   = 300.00000, tempi   = 300.00000, gamma_ln=   2.00000

Pressure regulation:
     ntp     =       1
     pres0   =   1.01325, comp    =  44.60000, taup    =   5.00000

SHAKE:
     ntc     =       2, jfastw  =       0
     tol     =   0.00001

Free energy options:
     icfe    =       1, ifsc    =       0, klambda =       1
     clambda =  0.0479, scalpha =  0.5000, scbeta  = 12.0000
     sceeorder =       2
     dynlmb =  0.0000 logdvdl =       0

Ewald parameters:
     verbose =       0, ew_type =       0, nbflag  =       1, use_pme =       1
     vdwmeth =       1, eedmeth =       1, netfrc  =       1
     Box X =   67.054   Box Y =   67.054   Box Z =   67.054
     Alpha =  109.471   Beta  =  109.471   Gamma =  109.471
     NFFT1 =   64       NFFT2 =   64       NFFT3 =   64
     Cutoff=   10.000   Tol   =0.100E-04
     Ewald Coefficient =  0.27511
     Interpolation order =    4
     TI Mask 1 :1; matches     12 atoms
     TI Mask 2 :2; matches     12 atoms
     TI region 1:      12 atoms
     TI region 2:      12 atoms
Removing charge of      -0.6664 from atom      13
Removing charge of      -0.6664 from atom      14
Removing charge of      -0.0664 from atom      15
Removing charge of      -0.0664 from atom      16
Removing charge of       0.2792 from atom      17
Removing charge of       0.2802 from atom      18
Removing charge of       0.2802 from atom      19
Removing charge of       0.2792 from atom      20
Removing charge of       0.0898 from atom      21
Removing charge of       0.0837 from atom      22
Removing charge of       0.0898 from atom      23
Removing charge of       0.0837 from atom      24
Total charge of  -0.00000000 removed from      12 atoms
     Checking for mismatched coordinates.

--------------------------------------------------------------------------------
   3.  ATOMIC COORDINATES AND VELOCITIES
--------------------------------------------------------------------------------

default_name
 begin time read from input coords =   200.000 ps

 Number of triangulated 3-point waters found:        0

     Sum of charges for TI region  1 =  -0.00000000
     Forcing neutrality...

     Sum of charges for TI region  2 =   0.00000000
     Forcing neutrality...

--------------------------------------------------------------------------------
   4.  RESULTS
 NSTEP =     1000   TIME(PS) =     202.000  TEMP(K) =   403.04  PRESS =     0.4
 Etot   =        29.4657  EKtot   =        11.2130  EPtot      =        18.2528
 BOND   =         0.5553  ANGLE   =         3.2502  DIHED      =         1.8025
 1-4 NB =         0.6264  1-4 EEL =        38.0640  VDWAALS    =        -0.1357
 EELEC  =       -25.9099  EHBOND  =         0.0000  RESTRAINT  =         0.0000
 EKCMT  =         1.3152  VIRIAL  =        -0.5211  VOLUME     =    232080.8940
                                                    Density    =         0.0004
 DV/DL  =       -12.7661
 ------------------------------------------------------------------------------

      A V E R A G E S   O V E R    1000 S T E P S

 NSTEP =     1000   TIME(PS) =     202.000  TEMP(K) =   304.48  PRESS =     0.4
 Etot   =        28.9424  EKtot   =         8.4709  EPtot      =        20.4715
 BOND   =         0.9708  ANGLE   =         5.0650  DIHED      =         1.6298
 1-4 NB =         0.4636  1-4 EEL =        37.4318  VDWAALS    =        -0.1148
 EELEC  =       -24.9748  EHBOND  =         0.0000  RESTRAINT  =         0.0000
 EKCMT  =         1.3242  VIRIAL  =        -0.4355  VOLUME     =    232082.2609
                                                    Density    =         0.0004
 DV/DL  =       -13.0843
 ------------------------------------------------------------------------------

      R M S  F L U C T U A T I O N S

 NSTEP =     1000   TIME(PS) =     202.000  TEMP(K) =    61.05  PRESS =     0.1
 Etot   =         1.7204  EKtot   =         1.6985  EPtot      =         1.7597
 BOND   =         0.7156  ANGLE   =         1.5885  DIHED      =         1.1677
 1-4 NB =         0.3662  1-4 EEL =         2.4505  VDWAALS    =         0.0260
 EELEC  =         2.3996  EHBOND  =         0.0000  RESTRAINT  =         0.0000
 EKCMT  =         0.5371  VIRIAL  =         0.0980  VOLUME     =         0.8016
                                                    Density    =         0.0000
 DV/DL  =         0.4929
 ------------------------------------------------------------------------------

      A V E R A G E S   O V E R    1000 S T E P S

 NSTEP =     1000   TIME(PS) =     202.000  TEMP(K) =   304.48  PRESS =     0.4
 Etot   =        28.9424  EKtot   =         8.4709  EPtot      =        20.4715
 BOND   =         0.9708  ANGLE   =         5.0650  DIHED      =         1.6298
 1-4 NB =         0.4636  1-4 EEL =        37.4318  VDWAALS    =        -0.1148
 EELEC  =       -24.9748  EHBOND  =         0.0000  RESTRAINT  =         0.0000
 EKCMT  =         1.3242  VIRIAL  =        -0.4355  VOLUME     =    232082.2609
                                                    Density    =         0.0004
 DV/DL  =       -13.0843
 ------------------------------------------------------------------------------

      R M S  F L U C T U A T I O N S

 NSTEP =     1000   TIME(PS) =     202.000  TEMP(K) =    61.05  PRESS =     0.1
 Etot   =         1.7204  EKtot   =         1.6985  EPtot      =         1.7597
 BOND   =         0.7156  ANGLE   =         1.5885  DIHED      =         1.1677
 1-4 NB =         0.3662  1-4 EEL =         2.4505  VDWAALS    =         0.0260
 EELEC  =         2.3996  EHBOND  =         0.0000  RESTRAINT  =         0.0000
 EKCMT  =         0.5371  VIRIAL  =         0.0980  VOLUME     =         0.8016
                                                    Density    =         0.0000
 DV/DL  =         0.4929
 ------------------------------------------------------------------------------

      DV/DL, AVERAGES OVER    1000 STEPS

 NSTEP =     1000   TIME(PS) =     202.000  TEMP(K) =    61.05  PRESS =     0.0
 Etot   =         0.0000  EKtot   =         0.0000  EPtot      =       -13.0843
 BOND   =         0.0000  ANGLE   =         0.0000  DIHED      =         0.0000
 1-4 NB =         0.0000  1-4 EEL =       -39.3166  VDWAALS    =         0.0000
 EELEC  =        26.2324  EHBOND  =         0.0000  RESTRAINT  =         0.0000
 EKCMT  =         0.0000  VIRIAL  =         0.0000  VOLUME     =         0.0000
                                                    Density    =         0.0000
 DV/DL  =       -13.0843
 ------------------------------------------------------------------------------

      A V E R A G E S   O V E R    1000 S T E P S

 NSTEP =     2000   TIME(PS) =     204.000  TEMP(K) =   283.79  PRESS =     0.4
 Etot   =        27.4809  EKtot   =         7.8953  EPtot      =        19.5856
 BOND   =         1.0373  ANGLE   =         4.4787  DIHED      =         1.1863
 1-4 NB =         0.4571  1-4 EEL =        38.1244  VDWAALS    =        -0.1183
 EELEC  =       -25.5799  EHBOND  =         0.0000  RESTRAINT  =         0.0000
 EKCMT  =         1.6540  VIRIAL  =        -0.4179  VOLUME     =    232079.6421
                                                    Density    =         0.0004
 DV/DL  =       -13.1762
 ------------------------------------------------------------------------------

      R M S  F L U C T U A T I O N S

 NSTEP =     2000   TIME(PS) =     204.000  TEMP(K) =    65.11  PRESS =     0.2
 Etot   =         2.0648  EKtot   =         1.8113  EPtot      =         1.6359
 BOND   =         0.7812  ANGLE   =         1.3423  DIHED      =         0.8473
 1-4 NB =         0.3600  1-4 EEL =         1.6750  VDWAALS    =         0.0204
 EELEC  =         1.6917  EHBOND  =         0.0000  RESTRAINT  =         0.0000
 EKCMT  =         1.1730  VIRIAL  =         0.1407  VOLUME     =         0.7077
                                                    Density    =         0.0000
 DV/DL  =         0.4050
 ------------------------------------------------------------------------------

      A V E R A G E S   O V E R    1000 S T E P S

 NSTEP =     2000   TIME(PS) =     204.000  TEMP(K) =   283.79  PRESS =     0.4
 Etot   =        27.4809  EKtot   =         7.8953  EPtot      =        19.5856
 BOND   =         1.0373  ANGLE   =         4.4787  DIHED      =         1.1863
 1-4 NB =         0.4571  1-4 EEL =        38.1244  VDWAALS    =        -0.1183
 EELEC  =       -25.5799  EHBOND  =         0.0000  RESTRAINT  =         0.0000
 EKCMT  =         1.6540  VIRIAL  =        -0.4179  VOLUME     =    232079.6421
                                                    Density    =         0.0004
 DV/DL  =       -13.1762
 ------------------------------------------------------------------------------

      R M S  F L U C T U A T I O N S

 NSTEP =     2000   TIME(PS) =     204.000  TEMP(K) =    65.11  PRESS =     0.2
 Etot   =         2.0648  EKtot   =         1.8113  EPtot      =         1.6359
 BOND   =         0.7812  ANGLE   =         1.3423  DIHED      =         0.8473
 1-4 NB =         0.3600  1-4 EEL =         1.6750  VDWAALS    =         0.0204
 EELEC  =         1.6917  EHBOND  =         0.0000  RESTRAINT  =         0.0000
 EKCMT  =         1.1730  VIRIAL  =         0.1407  VOLUME     =         0.7077
                                                    Density    =         0.0000
 DV/DL  =         0.4050
 ------------------------------------------------------------------------------

      DV/DL, AVERAGES OVER    1000 STEPS

 NSTEP =     2000   TIME(PS) =     204.000  TEMP(K) =    65.11  PRESS =     0.0
 Etot   =         0.0000  EKtot   =         0.0000  EPtot      =       -13.1762
 BOND   =         0.0000  ANGLE   =         0.0000  DIHED      =         0.0000
 1-4 NB =         0.0000  1-4 EEL =       -40.0441  VDWAALS    =         0.0000
 EELEC  =        26.8679  EHBOND  =         0.0000  RESTRAINT  =         0.0000
 EKCMT  =         0.0000  VIRIAL  =         0.0000  VOLUME     =         0.0000
                                                    Density    =         0.0000
 DV/DL  =       -13.1762
 ------------------------------------------------------------------------------

      A V E R A G E S   O V E R    1000 S T E P S

 NSTEP =   500000   TIME(PS) =    1200.000  TEMP(K) =   259.73  PRESS =     0.2
 Etot   =        25.9192  EKtot   =         7.2259  EPtot      =        18.6933
 BOND   =         0.9054  ANGLE   =         4.0228  DIHED      =         1.5812
 1-4 NB =         0.5280  1-4 EEL =        37.6290  VDWAALS    =        -0.1164
 EELEC  =       -25.8566  EHBOND  =         0.0000  RESTRAINT  =         0.0000
 EKCMT  =         0.7554  VIRIAL  =        -0.4265  VOLUME     =    230908.2651
                                                    Density    =         0.0004
 DV/DL  =       -12.3651
 ------------------------------------------------------------------------------

      R M S  F L U C T U A T I O N S

 NSTEP =   500000   TIME(PS) =    1200.000  TEMP(K) =    63.87  PRESS =     0.1
 Etot   =         1.7764  EKtot   =         1.7768  EPtot      =         1.5865
 BOND   =         0.7343  ANGLE   =         1.2598  DIHED      =         1.1135
 1-4 NB =         0.4394  1-4 EEL =         2.0202  VDWAALS    =         0.0217
 EELEC  =         2.2190  EHBOND  =         0.0000  RESTRAINT  =         0.0000
 EKCMT  =         0.5389  VIRIAL  =         0.1378  VOLUME     =         0.8769
                                                    Density    =         0.0000
 DV/DL  =         0.4494
 ------------------------------------------------------------------------------

      A V E R A G E S   O V E R    1000 S T E P S

 NSTEP =   500000   TIME(PS) =    1200.000  TEMP(K) =   259.73  PRESS =     0.2
 Etot   =        25.9192  EKtot   =         7.2259  EPtot      =        18.6933
 BOND   =         0.9054  ANGLE   =         4.0228  DIHED      =         1.5812
 1-4 NB =         0.5280  1-4 EEL =        37.6290  VDWAALS    =        -0.1164
 EELEC  =       -25.8566  EHBOND  =         0.0000  RESTRAINT  =         0.0000
 EKCMT  =         0.7554  VIRIAL  =        -0.4265  VOLUME     =    230908.2651
                                                    Density    =         0.0004
 DV/DL  =       -12.3651
 ------------------------------------------------------------------------------

      R M S  F L U C T U A T I O N S

 NSTEP =   500000   TIME(PS) =    1200.000  TEMP(K) =    63.87  PRESS =     0.1
 Etot   =         1.7764  EKtot   =         1.7768  EPtot      =         1.5865
 BOND   =         0.7343  ANGLE   =         1.2598  DIHED      =         1.1135
 1-4 NB =         0.4394  1-4 EEL =         2.0202  VDWAALS    =         0.0217
 EELEC  =         2.2190  EHBOND  =         0.0000  RESTRAINT  =         0.0000
 EKCMT  =         0.5389  VIRIAL  =         0.1378  VOLUME     =         0.8769
                                                    Density    =         0.0000
 DV/DL  =         0.4494
 ------------------------------------------------------------------------------

      DV/DL, AVERAGES OVER    1000 STEPS

 NSTEP =   500000   TIME(PS) =    1200.000  TEMP(K) =    63.87  PRESS =     0.0
 Etot   =         0.0000  EKtot   =         0.0000  EPtot      =       -12.3651
 BOND   =         0.0000  ANGLE   =         0.0000  DIHED      =         0.0000
 1-4 NB =         0.0000  1-4 EEL =       -39.5238  VDWAALS    =         0.0000
 EELEC  =        27.1586  EHBOND  =         0.0000  RESTRAINT  =         0.0000
 EKCMT  =         0.0000  VIRIAL  =         0.0000  VOLUME     =         0.0000
                                                    Density    =         0.0000
 DV/DL  =       -12.3651
 ------------------------------------------------------------------------------

      A V E R A G E S   O V E R  500000 S T E P S

 NSTEP =   500000   TIME(PS) =    1200.000  TEMP(K) =   301.08  PRESS =     0.4
 Etot   =        27.8219  EKtot   =         8.3763  EPtot      =        19.4456
 BOND   =         0.9672  ANGLE   =         4.9282  DIHED      =         1.1479
 1-4 NB =         0.5100  1-4 EEL =        36.3681  VDWAALS    =        -0.0994
 EELEC  =       -24.3765  EHBOND  =         0.0000  RESTRAINT  =         0.0000
 EKCMT  =         1.7838  VIRIAL  =        -0.4319  VOLUME     =    231503.2236
                                                    Density    =         0.0004
 DV/DL  =       -12.5955
 ------------------------------------------------------------------------------

      R M S  F L U C T U A T I O N S

 NSTEP =   500000   TIME(PS) =    1200.000  TEMP(K) =    81.70  PRESS =     0.3
 Etot   =         3.2184  EKtot   =         2.2731  EPtot      =         2.2123
 BOND   =         0.7918  ANGLE   =         1.7587  DIHED      =         0.8152
 1-4 NB =         0.4445  1-4 EEL =         4.6901  VDWAALS    =         0.0333
 EELEC  =         4.9524  EHBOND  =         0.0000  RESTRAINT  =         0.0000
 EKCMT  =         1.4389  VIRIAL  =         0.1323  VOLUME     =       339.6919
                                                    Density    =         0.0000
 DV/DL  =         0.6725
 ------------------------------------------------------------------------------

      A V E R A G E S   O V E R  500000 S T E P S

 NSTEP =   500000   TIME(PS) =    1200.000  TEMP(K) =   301.08  PRESS =     0.4
 Etot   =        27.8219  EKtot   =         8.3763  EPtot      =        19.4456
 BOND   =         0.9672  ANGLE   =         4.9282  DIHED      =         1.1479
 1-4 NB =         0.5100  1-4 EEL =        36.3681  VDWAALS    =        -0.0994
 EELEC  =       -24.3765  EHBOND  =         0.0000  RESTRAINT  =         0.0000
 EKCMT  =         1.7838  VIRIAL  =        -0.4319  VOLUME     =    231503.2236
                                                    Density    =         0.0004
 DV/DL  =       -12.5955
 ------------------------------------------------------------------------------

      R M S  F L U C T U A T I O N S

 NSTEP =   500000   TIME(PS) =    1200.000  TEMP(K) =    81.70  PRESS =     0.3
 Etot   =         3.2184  EKtot   =         2.2731  EPtot      =         2.2123
 BOND   =         0.7918  ANGLE   =         1.7587  DIHED      =         0.8152
 1-4 NB =         0.4445  1-4 EEL =         4.6901  VDWAALS    =         0.0333
 EELEC  =         4.9524  EHBOND  =         0.0000  RESTRAINT  =         0.0000
 EKCMT  =         1.4389  VIRIAL  =         0.1323  VOLUME     =       339.6919
                                                    Density    =         0.0000
 DV/DL  =         0.6725
 ------------------------------------------------------------------------------

      DV/DL, AVERAGES OVER  500000 STEPS

 NSTEP =   500000   TIME(PS) =    1200.000  TEMP(K) =    81.70  PRESS =     0.0
 Etot   =         0.0000  EKtot   =         0.0000  EPtot      =       -12.5955
 BOND   =         0.0000  ANGLE   =         0.0000  DIHED      =         0.0000
 1-4 NB =         0.0000  1-4 EEL =       -38.1994  VDWAALS    =         0.0000
 EELEC  =        25.6039  EHBOND  =         0.0000  RESTRAINT  =         0.0000
 EKCMT  =         0.0000  VIRIAL  =         0.0000  VOLUME     =         0.0000
                                                    Density    =         0.0000
 DV/DL  =       -12.5955
 ------------------------------------------------------------------------------
