-------------------------------------------------------
          Amber 18 PMEMD                              2018
          -------------------------------------------------------

  [-O]verwriting output

File Assignments:

 Here is the input file:

 &cntrl
   nstlim=500000, nscm=1000,
   ntx=5, irest=1, ntpr=1000,
   tempi=300.0, temp0=300.0, ntt=3, gamma_ln=2.0,
   ntp=1, pres0=1.01325, taup=5.0,
   ntb=2, igb=0, cut=10.0,
   dt=0.002, ig=-1,
   ntc=2, ntf=2,
   iwrap=0,
   ntwr=1000, ntwx=50000, ntave=1000,
   ioutfm=1, ntwv=-1,
   ifsc = 0, icfe=1,
   clambda=0.79366,
   timask1=':1',
   timask2=':2', crgmask = ':2',
/

Note: ig = -1. Setting random seed to   979558 based on wallclock time in
      microseconds.

--------------------------------------------------------------------------------
   1.  RESOURCE   USE:
--------------------------------------------------------------------------------

 getting box info from netcdf restart file
 NATOM  =   20967 NTYPES =       6 NBONH =   20959 MBONA  =       6
 NTHETH =      32 MTHETA =       4 NPHIH =      40 MPHIA  =       2
 NHPARM =       0 NPARM  =       0 NNB   =   28026 NRES   =    6983
 NBONA  =       6 NTHETA =       4 NPHIA =       2 NUMBND =       6
 NUMANG =       6 NPTRA  =       2 NATYP =       6 NPHB   =       1
 IFBOX  =       2 NMXRS  =      12 IFCAP =       0 NEXTRA =       0
 NCOPY  =       0

     BOX TYPE: TRUNCATED OCTAHEDRON

--------------------------------------------------------------------------------
   2.  CONTROL  DATA  FOR  THE  RUN
--------------------------------------------------------------------------------

default_name

General flags:
     imin    =       0, nmropt  =       0

Nature and format of input:
     ntx     =       5, irest   =       1, ntrx    =       1

Nature and format of output:
     ntxo    =       2, ntpr    =    1000, ntrx    =       1, ntwr    =    1000
     iwrap   =       0, ntwx    =   50000, ntwv    =      -1, ntwe    =       0
     ioutfm  =       1, ntwprt  =       0, idecomp =       0, rbornstat=      0

Potential function:
     ntf     =       2, ntb     =       2, igb     =       0, nsnb    =      25
     ipol    =       0, gbsa    =       0, iesp    =       0
     dielc   =   1.00000, cut     =  10.00000, intdiel =   1.00000

Frozen or restrained atoms:
     ibelly  =       0, ntr     =       0

Molecular dynamics:
     nstlim  =    500000, nscm    =      1000, nrespa  =         1
     t       =   0.00000, dt      =   0.00200, vlimit  =  -1.00000

Langevin dynamics temperature regulation:
     ig      =  979558
     temp0   = 300.00000, tempi   = 300.00000, gamma_ln=   2.00000

Pressure regulation:
     ntp     =       1
     pres0   =   1.01325, comp    =  44.60000, taup    =   5.00000

SHAKE:
     ntc     =       2, jfastw  =       0
     tol     =   0.00001

Free energy options:
     icfe    =       1, ifsc    =       0, klambda =       1
     clambda =  0.7937, scalpha =  0.5000, scbeta  = 12.0000
     sceeorder =       2
     dynlmb =  0.0000 logdvdl =       0

Ewald parameters:
     verbose =       0, ew_type =       0, nbflag  =       1, use_pme =       1
     vdwmeth =       1, eedmeth =       1, netfrc  =       1
     Box X =   67.054   Box Y =   67.054   Box Z =   67.054
     Alpha =  109.471   Beta  =  109.471   Gamma =  109.471
     NFFT1 =   64       NFFT2 =   64       NFFT3 =   64
     Cutoff=   10.000   Tol   =0.100E-04
     Ewald Coefficient =  0.27511
     Interpolation order =    4
     TI Mask 1 :1; matches     12 atoms
     TI Mask 2 :2; matches     12 atoms
     TI region 1:   20955 atoms
     TI region 2:   20955 atoms
Removing charge of      -0.6664 from atom      13
Removing charge of      -0.6664 from atom      14
Removing charge of      -0.0664 from atom      15
Removing charge of      -0.0664 from atom      16
Removing charge of       0.2792 from atom      17
Removing charge of       0.2802 from atom      18
Removing charge of       0.2802 from atom      19
Removing charge of       0.2792 from atom      20
Removing charge of       0.0898 from atom      21
Removing charge of       0.0837 from atom      22
Removing charge of       0.0898 from atom      23
Removing charge of       0.0837 from atom      24
Total charge of  -0.00000000 removed from      12 atoms
     Checking for mismatched coordinates.

--------------------------------------------------------------------------------
   3.  ATOMIC COORDINATES AND VELOCITIES
--------------------------------------------------------------------------------

default_name
 begin time read from input coords =   200.000 ps

 Number of triangulated 3-point waters found:     6981

     Sum of charges for TI region  1 =  -0.00000000
     Forcing neutrality...

     Sum of charges for TI region  2 =   0.00000000
     Forcing neutrality...

--------------------------------------------------------------------------------
   4.  RESULTS
 NSTEP =     1000   TIME(PS) =     202.000  TEMP(K) =   298.57  PRESS =  -708.2
 Etot   =    -53163.9092  EKtot   =     12434.2130  EPtot      =    -65598.1222
 BOND   =         0.2440  ANGLE   =         7.1650  DIHED      =         1.4584
 1-4 NB =         0.2570  1-4 EEL =         5.8892  VDWAALS    =      9546.4163
 EELEC  =    -75159.5521  EHBOND  =         0.0000  RESTRAINT  =         0.0000
 EKCMT  =      6209.3118  VIRIAL  =      9710.0101  VOLUME     =    228951.6321
                                                    Density    =         0.9126
 DV/DL  =       -12.4301
 ------------------------------------------------------------------------------

      A V E R A G E S   O V E R    1000 S T E P S

 NSTEP =     1000   TIME(PS) =     202.000  TEMP(K) =   300.42  PRESS =  -761.3
 Etot   =    -53093.9052  EKtot   =     12511.2177  EPtot      =    -65605.1229
 BOND   =         0.7871  ANGLE   =         5.6606  DIHED      =         0.9124
 1-4 NB =         0.1584  1-4 EEL =         5.7856  VDWAALS    =      9582.3241
 EELEC  =    -75200.7510  EHBOND  =         0.0000  RESTRAINT  =         0.0000
 EKCMT  =      6270.6263  VIRIAL  =     10059.6632  VOLUME     =    230427.6170
                                                    Density    =         0.9068
 DV/DL  =       -11.3462
 ------------------------------------------------------------------------------

      R M S  F L U C T U A T I O N S

 NSTEP =     1000   TIME(PS) =     202.000  TEMP(K) =     1.66  PRESS =   124.7
 Etot   =       109.4607  EKtot   =        69.0658  EPtot      =       109.9279
 BOND   =         0.5898  ANGLE   =         1.5060  DIHED      =         0.4835
 1-4 NB =         0.1761  1-4 EEL =         0.1127  VDWAALS    =       110.7297
 EELEC  =       177.6527  EHBOND  =         0.0000  RESTRAINT  =         0.0000
 EKCMT  =        47.3523  VIRIAL  =       639.1282  VOLUME     =       919.3185
                                                    Density    =         0.0036
 DV/DL  =         2.2351
 ------------------------------------------------------------------------------

      A V E R A G E S   O V E R    1000 S T E P S

 NSTEP =     1000   TIME(PS) =     202.000  TEMP(K) =   300.42  PRESS =  -761.3
 Etot   =    -53093.9052  EKtot   =     12511.2177  EPtot      =    -65605.1229
 BOND   =         0.7871  ANGLE   =         5.6606  DIHED      =         0.9124
 1-4 NB =         0.1584  1-4 EEL =         5.7856  VDWAALS    =      9582.3241
 EELEC  =    -75200.7510  EHBOND  =         0.0000  RESTRAINT  =         0.0000
 EKCMT  =      6270.6263  VIRIAL  =     10059.6632  VOLUME     =    230427.6170
                                                    Density    =         0.9068
 DV/DL  =       -11.3462
 ------------------------------------------------------------------------------

      R M S  F L U C T U A T I O N S

 NSTEP =     1000   TIME(PS) =     202.000  TEMP(K) =     1.66  PRESS =   124.7
 Etot   =       109.4607  EKtot   =        69.0658  EPtot      =       109.9279
 BOND   =         0.5898  ANGLE   =         1.5060  DIHED      =         0.4835
 1-4 NB =         0.1761  1-4 EEL =         0.1127  VDWAALS    =       110.7297
 EELEC  =       177.6527  EHBOND  =         0.0000  RESTRAINT  =         0.0000
 EKCMT  =        47.3523  VIRIAL  =       639.1282  VOLUME     =       919.3185
                                                    Density    =         0.0036
 DV/DL  =         2.2351
 ------------------------------------------------------------------------------

      DV/DL, AVERAGES OVER    1000 STEPS

 NSTEP =     1000   TIME(PS) =     202.000  TEMP(K) =     1.66  PRESS =     0.0
 Etot   =         0.0000  EKtot   =         0.0000  EPtot      =       -11.3462
 BOND   =         0.0000  ANGLE   =         0.0000  DIHED      =         0.0000
 1-4 NB =         0.0000  1-4 EEL =       -28.0394  VDWAALS    =         0.0000
 EELEC  =        16.6932  EHBOND  =         0.0000  RESTRAINT  =         0.0000
 EKCMT  =         0.0000  VIRIAL  =         0.0000  VOLUME     =         0.0000
                                                    Density    =         0.0000
 DV/DL  =       -11.3462
 ------------------------------------------------------------------------------

      A V E R A G E S   O V E R    1000 S T E P S

 NSTEP =     2000   TIME(PS) =     204.000  TEMP(K) =   299.41  PRESS =  -627.8
 Etot   =    -53341.5699  EKtot   =     12469.1618  EPtot      =    -65810.7317
 BOND   =         0.9771  ANGLE   =         6.2267  DIHED      =         0.9711
 1-4 NB =         0.1791  1-4 EEL =         5.7874  VDWAALS    =      9690.2374
 EELEC  =    -75515.1104  EHBOND  =         0.0000  RESTRAINT  =         0.0000
 EKCMT  =      6263.2587  VIRIAL  =      9349.2912  VOLUME     =    227657.6178
                                                    Density    =         0.9178
 DV/DL  =       -11.1311
 ------------------------------------------------------------------------------

      R M S  F L U C T U A T I O N S

 NSTEP =     2000   TIME(PS) =     204.000  TEMP(K) =     1.87  PRESS =   105.6
 Etot   =       145.0102  EKtot   =        78.0588  EPtot      =       126.2672
 BOND   =         0.7867  ANGLE   =         1.7012  DIHED      =         0.6498
 1-4 NB =         0.2147  1-4 EEL =         0.1455  VDWAALS    =       115.8986
 EELEC  =       201.6488  EHBOND  =         0.0000  RESTRAINT  =         0.0000
 EKCMT  =        55.6088  VIRIAL  =       535.1286  VOLUME     =       739.0717
                                                    Density    =         0.0030
 DV/DL  =         2.1368
 ------------------------------------------------------------------------------

      A V E R A G E S   O V E R    1000 S T E P S

 NSTEP =     2000   TIME(PS) =     204.000  TEMP(K) =   299.41  PRESS =  -627.8
 Etot   =    -53341.5699  EKtot   =     12469.1618  EPtot      =    -65810.7317
 BOND   =         0.9771  ANGLE   =         6.2267  DIHED      =         0.9711
 1-4 NB =         0.1791  1-4 EEL =         5.7874  VDWAALS    =      9690.2374
 EELEC  =    -75515.1104  EHBOND  =         0.0000  RESTRAINT  =         0.0000
 EKCMT  =      6263.2587  VIRIAL  =      9349.2912  VOLUME     =    227657.6178
                                                    Density    =         0.9178
 DV/DL  =       -11.1311
 ------------------------------------------------------------------------------

      R M S  F L U C T U A T I O N S

 NSTEP =     2000   TIME(PS) =     204.000  TEMP(K) =     1.87  PRESS =   105.6
 Etot   =       145.0102  EKtot   =        78.0588  EPtot      =       126.2672
 BOND   =         0.7867  ANGLE   =         1.7012  DIHED      =         0.6498
 1-4 NB =         0.2147  1-4 EEL =         0.1455  VDWAALS    =       115.8986
 EELEC  =       201.6488  EHBOND  =         0.0000  RESTRAINT  =         0.0000
 EKCMT  =        55.6088  VIRIAL  =       535.1286  VOLUME     =       739.0717
                                                    Density    =         0.0030
 DV/DL  =         2.1368
 ------------------------------------------------------------------------------

      DV/DL, AVERAGES OVER    1000 STEPS

 NSTEP =     2000   TIME(PS) =     204.000  TEMP(K) =     1.87  PRESS =     0.0
 Etot   =         0.0000  EKtot   =         0.0000  EPtot      =       -11.1311
 BOND   =         0.0000  ANGLE   =         0.0000  DIHED      =         0.0000
 1-4 NB =         0.0000  1-4 EEL =       -28.0480  VDWAALS    =         0.0000
 EELEC  =        16.9168  EHBOND  =         0.0000  RESTRAINT  =         0.0000
 EKCMT  =         0.0000  VIRIAL  =         0.0000  VOLUME     =         0.0000
                                                    Density    =         0.0000
 DV/DL  =       -11.1311
 ------------------------------------------------------------------------------

      A V E R A G E S   O V E R    1000 S T E P S

 NSTEP =   500000   TIME(PS) =    1200.000  TEMP(K) =   299.43  PRESS =     4.9
 Etot   =    -54164.7448  EKtot   =     12469.8071  EPtot      =    -66634.5519
 BOND   =         0.9698  ANGLE   =         4.7852  DIHED      =         1.1056
 1-4 NB =         0.1698  1-4 EEL =         5.8104  VDWAALS    =      9987.9462
 EELEC  =    -76635.3389  EHBOND  =         0.0000  RESTRAINT  =         0.0000
 EKCMT  =      6229.3606  VIRIAL  =      6206.6329  VOLUME     =    212795.7221
                                                    Density    =         0.9819
 DV/DL  =       -11.0647
 ------------------------------------------------------------------------------

      R M S  F L U C T U A T I O N S

 NSTEP =   500000   TIME(PS) =    1200.000  TEMP(K) =     1.79  PRESS =   153.2
 Etot   =        63.3735  EKtot   =        74.4561  EPtot      =        93.7930
 BOND   =         0.6990  ANGLE   =         1.4088  DIHED      =         0.7944
 1-4 NB =         0.2018  1-4 EEL =         0.1722  VDWAALS    =       139.5051
 EELEC  =       174.6045  EHBOND  =         0.0000  RESTRAINT  =         0.0000
 EKCMT  =        53.6580  VIRIAL  =       708.7243  VOLUME     =        43.2054
                                                    Density    =         0.0002
 DV/DL  =         3.0205
 ------------------------------------------------------------------------------

      A V E R A G E S   O V E R    1000 S T E P S

 NSTEP =   500000   TIME(PS) =    1200.000  TEMP(K) =   299.43  PRESS =     4.9
 Etot   =    -54164.7448  EKtot   =     12469.8071  EPtot      =    -66634.5519
 BOND   =         0.9698  ANGLE   =         4.7852  DIHED      =         1.1056
 1-4 NB =         0.1698  1-4 EEL =         5.8104  VDWAALS    =      9987.9462
 EELEC  =    -76635.3389  EHBOND  =         0.0000  RESTRAINT  =         0.0000
 EKCMT  =      6229.3606  VIRIAL  =      6206.6329  VOLUME     =    212795.7221
                                                    Density    =         0.9819
 DV/DL  =       -11.0647
 ------------------------------------------------------------------------------

      R M S  F L U C T U A T I O N S

 NSTEP =   500000   TIME(PS) =    1200.000  TEMP(K) =     1.79  PRESS =   153.2
 Etot   =        63.3735  EKtot   =        74.4561  EPtot      =        93.7930
 BOND   =         0.6990  ANGLE   =         1.4088  DIHED      =         0.7944
 1-4 NB =         0.2018  1-4 EEL =         0.1722  VDWAALS    =       139.5051
 EELEC  =       174.6045  EHBOND  =         0.0000  RESTRAINT  =         0.0000
 EKCMT  =        53.6580  VIRIAL  =       708.7243  VOLUME     =        43.2054
                                                    Density    =         0.0002
 DV/DL  =         3.0205
 ------------------------------------------------------------------------------

      DV/DL, AVERAGES OVER    1000 STEPS

 NSTEP =   500000   TIME(PS) =    1200.000  TEMP(K) =     1.79  PRESS =     0.0
 Etot   =         0.0000  EKtot   =         0.0000  EPtot      =       -11.0647
 BOND   =         0.0000  ANGLE   =         0.0000  DIHED      =         0.0000
 1-4 NB =         0.0000  1-4 EEL =       -28.1591  VDWAALS    =         0.0000
 EELEC  =        17.0944  EHBOND  =         0.0000  RESTRAINT  =         0.0000
 EKCMT  =         0.0000  VIRIAL  =         0.0000  VOLUME     =         0.0000
                                                    Density    =         0.0000
 DV/DL  =       -11.0647
 ------------------------------------------------------------------------------

      A V E R A G E S   O V E R  500000 S T E P S

 NSTEP =   500000   TIME(PS) =    1200.000  TEMP(K) =   300.04  PRESS =    -8.7
 Etot   =    -54081.8530  EKtot   =     12495.3378  EPtot      =    -66577.1908
 BOND   =         0.9403  ANGLE   =         4.8763  DIHED      =         1.0957
 1-4 NB =         0.4590  1-4 EEL =         7.1617  VDWAALS    =      9954.7849
 EELEC  =    -76546.5087  EHBOND  =         0.0000  RESTRAINT  =         0.0000
 EKCMT  =      6265.3004  VIRIAL  =      6307.2633  VOLUME     =    212797.3121
                                                    Density    =         0.9820
 DV/DL  =       -11.6102
 ------------------------------------------------------------------------------

      R M S  F L U C T U A T I O N S

 NSTEP =   500000   TIME(PS) =    1200.000  TEMP(K) =     2.07  PRESS =   144.9
 Etot   =       168.7329  EKtot   =        86.0145  EPtot      =       145.4436
 BOND   =         0.7686  ANGLE   =         1.6914  DIHED      =         0.7705
 1-4 NB =         0.5619  1-4 EEL =         1.3672  VDWAALS    =       128.5286
 EELEC  =       223.9684  EHBOND  =         0.0000  RESTRAINT  =         0.0000
 EKCMT  =        61.0872  VIRIAL  =       672.4341  VOLUME     =      1458.2557
                                                    Density    =         0.0064
 DV/DL  =         2.4029
 ------------------------------------------------------------------------------

      A V E R A G E S   O V E R  500000 S T E P S

 NSTEP =   500000   TIME(PS) =    1200.000  TEMP(K) =   300.04  PRESS =    -8.7
 Etot   =    -54081.8530  EKtot   =     12495.3378  EPtot      =    -66577.1908
 BOND   =         0.9403  ANGLE   =         4.8763  DIHED      =         1.0957
 1-4 NB =         0.4590  1-4 EEL =         7.1617  VDWAALS    =      9954.7849
 EELEC  =    -76546.5087  EHBOND  =         0.0000  RESTRAINT  =         0.0000
 EKCMT  =      6265.3004  VIRIAL  =      6307.2633  VOLUME     =    212797.3121
                                                    Density    =         0.9820
 DV/DL  =       -11.6102
 ------------------------------------------------------------------------------

      R M S  F L U C T U A T I O N S

 NSTEP =   500000   TIME(PS) =    1200.000  TEMP(K) =     2.07  PRESS =   144.9
 Etot   =       168.7329  EKtot   =        86.0145  EPtot      =       145.4436
 BOND   =         0.7686  ANGLE   =         1.6914  DIHED      =         0.7705
 1-4 NB =         0.5619  1-4 EEL =         1.3672  VDWAALS    =       128.5286
 EELEC  =       223.9684  EHBOND  =         0.0000  RESTRAINT  =         0.0000
 EKCMT  =        61.0872  VIRIAL  =       672.4341  VOLUME     =      1458.2557
                                                    Density    =         0.0064
 DV/DL  =         2.4029
 ------------------------------------------------------------------------------

      DV/DL, AVERAGES OVER  500000 STEPS

 NSTEP =   500000   TIME(PS) =    1200.000  TEMP(K) =     2.07  PRESS =     0.0
 Etot   =         0.0000  EKtot   =         0.0000  EPtot      =       -11.6102
 BOND   =         0.0000  ANGLE   =         0.0000  DIHED      =         0.0000
 1-4 NB =         0.0000  1-4 EEL =       -34.7080  VDWAALS    =         0.0000
 EELEC  =        23.0979  EHBOND  =         0.0000  RESTRAINT  =         0.0000
 EKCMT  =         0.0000  VIRIAL  =         0.0000  VOLUME     =         0.0000
                                                    Density    =         0.0000
 DV/DL  =       -11.6102
 ------------------------------------------------------------------------------
